gem5 Simulator System.  http://gem5.org
gem5 is copyrighted software; use the --copyright option for details.

gem5 compiled Dec  5 2017 11:40:29
gem5 started Dec  5 2017 11:45:21
gem5 executing on hellokitty-6, pid 291766
command line: /research/rraju2/ece752/gem5/build/ARM/gem5.opt /research/rraju2/ece752/gem5/configs/example/se.py --cpu-type=O3_ARM_v7a_3 --caches --l2cache --mem-size=2GB --cpu-clock=2GHz --sys-clock=2GHz --maxinsts=1000000000 --fast-forward=1000000000 --cmd=470.lbm '--options=300 reference.dat 0 1 100_100_130_cf_b.of' --output=470.lbm.stdout --errout=470.lbm.stderr

info: Standard input is not a terminal, disabling listeners.
Global frequency set at 1000000000000 ticks per second
Switch at instruction count:1000000000
Switched CPUS @ tick 610922713500
switching cpus
**** REAL SIMULATION ****
Exiting @ tick 1526296748000 because a thread reached the max instruction count
