gem5 Simulator System.  http://gem5.org
gem5 is copyrighted software; use the --copyright option for details.

gem5 compiled Dec  5 2017 11:40:29
gem5 started Dec  7 2017 16:02:27
gem5 executing on hellokitty-4, pid 358191
command line: /research/rraju2/ece752/gem5/build/ARM/gem5.opt /research/rraju2/ece752/gem5/configs/example/se.py --cpu-type=ex5_big --fast-forward=1000000000 --caches --l2cache --mem-size=2GB --cpu-clock=2GHz --sys-clock=2GHz --maxinsts=1000000000 --cmd=435.gromacs '--options=-silent -deffnm gromacs -nice 0' --output=435.gromacs.stdout --errout=435.gromacs.stderr

info: Standard input is not a terminal, disabling listeners.
Global frequency set at 1000000000000 ticks per second
Switch at instruction count:1000000000
Switched CPUS @ tick 706066800500
switching cpus
**** REAL SIMULATION ****
Exiting @ tick 1121679375500 because a thread reached the max instruction count
