
---------- Begin Simulation Statistics ----------
sim_seconds                                  0.382446                       # Number of seconds simulated
sim_ticks                                382446497500                       # Number of ticks simulated
final_tick                               1043880750500                       # Number of ticks from beginning of simulation (restored from checkpoints and never reset)
sim_freq                                 1000000000000                       # Frequency of simulated ticks
host_inst_rate                                 151585                       # Simulator instruction rate (inst/s)
host_op_rate                                   168574                       # Simulator op (including micro ops) rate (op/s)
host_tick_rate                               28986545                       # Simulator tick rate (ticks/s)
host_mem_usage                                2256416                       # Number of bytes of host memory used
host_seconds                                 13193.93                       # Real time elapsed on the host
sim_insts                                  2000000001                       # Number of instructions simulated
sim_ops                                    2224147475                       # Number of ops (including micro ops) simulated
system.voltage_domain.voltage                       1                       # Voltage in Volts
system.clk_domain.clock                           500                       # Clock period in ticks
system.mem_ctrls.pwrStateResidencyTicks::UNDEFINED 1043880750500                       # Cumulative time (in ticks) in various power states
system.mem_ctrls.bytes_read::switch_cpus.inst        23168                       # Number of bytes read from this memory
system.mem_ctrls.bytes_read::switch_cpus.data        74240                       # Number of bytes read from this memory
system.mem_ctrls.bytes_read::total              97408                       # Number of bytes read from this memory
system.mem_ctrls.bytes_inst_read::switch_cpus.inst        23168                       # Number of instructions bytes read from this memory
system.mem_ctrls.bytes_inst_read::total         23168                       # Number of instructions bytes read from this memory
system.mem_ctrls.bytes_written::writebacks        84416                       # Number of bytes written to this memory
system.mem_ctrls.bytes_written::total           84416                       # Number of bytes written to this memory
system.mem_ctrls.num_reads::switch_cpus.inst          362                       # Number of read requests responded to by this memory
system.mem_ctrls.num_reads::switch_cpus.data         1160                       # Number of read requests responded to by this memory
system.mem_ctrls.num_reads::total                1522                       # Number of read requests responded to by this memory
system.mem_ctrls.num_writes::writebacks          1319                       # Number of write requests responded to by this memory
system.mem_ctrls.num_writes::total               1319                       # Number of write requests responded to by this memory
system.mem_ctrls.bw_read::switch_cpus.inst        60578                       # Total read bandwidth from this memory (bytes/s)
system.mem_ctrls.bw_read::switch_cpus.data       194119                       # Total read bandwidth from this memory (bytes/s)
system.mem_ctrls.bw_read::total                254697                       # Total read bandwidth from this memory (bytes/s)
system.mem_ctrls.bw_inst_read::switch_cpus.inst        60578                       # Instruction read bandwidth from this memory (bytes/s)
system.mem_ctrls.bw_inst_read::total            60578                       # Instruction read bandwidth from this memory (bytes/s)
system.mem_ctrls.bw_write::writebacks          220726                       # Write bandwidth from this memory (bytes/s)
system.mem_ctrls.bw_write::total               220726                       # Write bandwidth from this memory (bytes/s)
system.mem_ctrls.bw_total::writebacks          220726                       # Total bandwidth to/from this memory (bytes/s)
system.mem_ctrls.bw_total::switch_cpus.inst        60578                       # Total bandwidth to/from this memory (bytes/s)
system.mem_ctrls.bw_total::switch_cpus.data       194119                       # Total bandwidth to/from this memory (bytes/s)
system.mem_ctrls.bw_total::total               475423                       # Total bandwidth to/from this memory (bytes/s)
system.mem_ctrls.readReqs                        1522                       # Number of read requests accepted
system.mem_ctrls.writeReqs                       1319                       # Number of write requests accepted
system.mem_ctrls.readBursts                      1522                       # Number of DRAM read bursts, including those serviced by the write queue
system.mem_ctrls.writeBursts                     1319                       # Number of DRAM write bursts, including those merged in the write queue
system.mem_ctrls.bytesReadDRAM                  97408                       # Total number of bytes read from DRAM
system.mem_ctrls.bytesReadWrQ                       0                       # Total number of bytes read from write queue
system.mem_ctrls.bytesWritten                   82688                       # Total number of bytes written to DRAM
system.mem_ctrls.bytesReadSys                   97408                       # Total read bytes from the system interface side
system.mem_ctrls.bytesWrittenSys                84416                       # Total written bytes from the system interface side
system.mem_ctrls.servicedByWrQ                      0                       # Number of DRAM read bursts serviced by the write queue
system.mem_ctrls.mergedWrBursts                     0                       # Number of DRAM write bursts merged with an existing one
system.mem_ctrls.neitherReadNorWriteReqs            0                       # Number of requests that are neither read nor write
system.mem_ctrls.perBankRdBursts::0                34                       # Per bank write bursts
system.mem_ctrls.perBankRdBursts::1                31                       # Per bank write bursts
system.mem_ctrls.perBankRdBursts::2                25                       # Per bank write bursts
system.mem_ctrls.perBankRdBursts::3                67                       # Per bank write bursts
system.mem_ctrls.perBankRdBursts::4                35                       # Per bank write bursts
system.mem_ctrls.perBankRdBursts::5                43                       # Per bank write bursts
system.mem_ctrls.perBankRdBursts::6                43                       # Per bank write bursts
system.mem_ctrls.perBankRdBursts::7                55                       # Per bank write bursts
system.mem_ctrls.perBankRdBursts::8                91                       # Per bank write bursts
system.mem_ctrls.perBankRdBursts::9               275                       # Per bank write bursts
system.mem_ctrls.perBankRdBursts::10              272                       # Per bank write bursts
system.mem_ctrls.perBankRdBursts::11              155                       # Per bank write bursts
system.mem_ctrls.perBankRdBursts::12              149                       # Per bank write bursts
system.mem_ctrls.perBankRdBursts::13              149                       # Per bank write bursts
system.mem_ctrls.perBankRdBursts::14               69                       # Per bank write bursts
system.mem_ctrls.perBankRdBursts::15               29                       # Per bank write bursts
system.mem_ctrls.perBankWrBursts::0                28                       # Per bank write bursts
system.mem_ctrls.perBankWrBursts::1                29                       # Per bank write bursts
system.mem_ctrls.perBankWrBursts::2                22                       # Per bank write bursts
system.mem_ctrls.perBankWrBursts::3                67                       # Per bank write bursts
system.mem_ctrls.perBankWrBursts::4                34                       # Per bank write bursts
system.mem_ctrls.perBankWrBursts::5                42                       # Per bank write bursts
system.mem_ctrls.perBankWrBursts::6                43                       # Per bank write bursts
system.mem_ctrls.perBankWrBursts::7                54                       # Per bank write bursts
system.mem_ctrls.perBankWrBursts::8                89                       # Per bank write bursts
system.mem_ctrls.perBankWrBursts::9               232                       # Per bank write bursts
system.mem_ctrls.perBankWrBursts::10              212                       # Per bank write bursts
system.mem_ctrls.perBankWrBursts::11               98                       # Per bank write bursts
system.mem_ctrls.perBankWrBursts::12              127                       # Per bank write bursts
system.mem_ctrls.perBankWrBursts::13              140                       # Per bank write bursts
system.mem_ctrls.perBankWrBursts::14               48                       # Per bank write bursts
system.mem_ctrls.perBankWrBursts::15               27                       # Per bank write bursts
system.mem_ctrls.numRdRetry                         0                       # Number of times read queue was full causing retry
system.mem_ctrls.numWrRetry                         0                       # Number of times write queue was full causing retry
system.mem_ctrls.totGap                  380826340000                       # Total gap between requests
system.mem_ctrls.readPktSize::0                     0                       # Read request sizes (log2)
system.mem_ctrls.readPktSize::1                     0                       # Read request sizes (log2)
system.mem_ctrls.readPktSize::2                     0                       # Read request sizes (log2)
system.mem_ctrls.readPktSize::3                     0                       # Read request sizes (log2)
system.mem_ctrls.readPktSize::4                     0                       # Read request sizes (log2)
system.mem_ctrls.readPktSize::5                     0                       # Read request sizes (log2)
system.mem_ctrls.readPktSize::6                  1522                       # Read request sizes (log2)
system.mem_ctrls.writePktSize::0                    0                       # Write request sizes (log2)
system.mem_ctrls.writePktSize::1                    0                       # Write request sizes (log2)
system.mem_ctrls.writePktSize::2                    0                       # Write request sizes (log2)
system.mem_ctrls.writePktSize::3                    0                       # Write request sizes (log2)
system.mem_ctrls.writePktSize::4                    0                       # Write request sizes (log2)
system.mem_ctrls.writePktSize::5                    0                       # Write request sizes (log2)
system.mem_ctrls.writePktSize::6                 1319                       # Write request sizes (log2)
system.mem_ctrls.rdQLenPdf::0                     980                       # What read queue length does an incoming req see
system.mem_ctrls.rdQLenPdf::1                     518                       # What read queue length does an incoming req see
system.mem_ctrls.rdQLenPdf::2                      19                       # What read queue length does an incoming req see
system.mem_ctrls.rdQLenPdf::3                       3                       # What read queue length does an incoming req see
system.mem_ctrls.rdQLenPdf::4                       2                       # What read queue length does an incoming req see
system.mem_ctrls.rdQLenPdf::5                       0                       # What read queue length does an incoming req see
system.mem_ctrls.rdQLenPdf::6                       0                       # What read queue length does an incoming req see
system.mem_ctrls.rdQLenPdf::7                       0                       # What read queue length does an incoming req see
system.mem_ctrls.rdQLenPdf::8                       0                       # What read queue length does an incoming req see
system.mem_ctrls.rdQLenPdf::9                       0                       # What read queue length does an incoming req see
system.mem_ctrls.rdQLenPdf::10                      0                       # What read queue length does an incoming req see
system.mem_ctrls.rdQLenPdf::11                      0                       # What read queue length does an incoming req see
system.mem_ctrls.rdQLenPdf::12                      0                       # What read queue length does an incoming req see
system.mem_ctrls.rdQLenPdf::13                      0                       # What read queue length does an incoming req see
system.mem_ctrls.rdQLenPdf::14                      0                       # What read queue length does an incoming req see
system.mem_ctrls.rdQLenPdf::15                      0                       # What read queue length does an incoming req see
system.mem_ctrls.rdQLenPdf::16                      0                       # What read queue length does an incoming req see
system.mem_ctrls.rdQLenPdf::17                      0                       # What read queue length does an incoming req see
system.mem_ctrls.rdQLenPdf::18                      0                       # What read queue length does an incoming req see
system.mem_ctrls.rdQLenPdf::19                      0                       # What read queue length does an incoming req see
system.mem_ctrls.rdQLenPdf::20                      0                       # What read queue length does an incoming req see
system.mem_ctrls.rdQLenPdf::21                      0                       # What read queue length does an incoming req see
system.mem_ctrls.rdQLenPdf::22                      0                       # What read queue length does an incoming req see
system.mem_ctrls.rdQLenPdf::23                      0                       # What read queue length does an incoming req see
system.mem_ctrls.rdQLenPdf::24                      0                       # What read queue length does an incoming req see
system.mem_ctrls.rdQLenPdf::25                      0                       # What read queue length does an incoming req see
system.mem_ctrls.rdQLenPdf::26                      0                       # What read queue length does an incoming req see
system.mem_ctrls.rdQLenPdf::27                      0                       # What read queue length does an incoming req see
system.mem_ctrls.rdQLenPdf::28                      0                       # What read queue length does an incoming req see
system.mem_ctrls.rdQLenPdf::29                      0                       # What read queue length does an incoming req see
system.mem_ctrls.rdQLenPdf::30                      0                       # What read queue length does an incoming req see
system.mem_ctrls.rdQLenPdf::31                      0                       # What read queue length does an incoming req see
system.mem_ctrls.wrQLenPdf::0                       1                       # What write queue length does an incoming req see
system.mem_ctrls.wrQLenPdf::1                       1                       # What write queue length does an incoming req see
system.mem_ctrls.wrQLenPdf::2                       1                       # What write queue length does an incoming req see
system.mem_ctrls.wrQLenPdf::3                       1                       # What write queue length does an incoming req see
system.mem_ctrls.wrQLenPdf::4                       1                       # What write queue length does an incoming req see
system.mem_ctrls.wrQLenPdf::5                       1                       # What write queue length does an incoming req see
system.mem_ctrls.wrQLenPdf::6                       1                       # What write queue length does an incoming req see
system.mem_ctrls.wrQLenPdf::7                       1                       # What write queue length does an incoming req see
system.mem_ctrls.wrQLenPdf::8                       1                       # What write queue length does an incoming req see
system.mem_ctrls.wrQLenPdf::9                       1                       # What write queue length does an incoming req see
system.mem_ctrls.wrQLenPdf::10                      1                       # What write queue length does an incoming req see
system.mem_ctrls.wrQLenPdf::11                      1                       # What write queue length does an incoming req see
system.mem_ctrls.wrQLenPdf::12                      1                       # What write queue length does an incoming req see
system.mem_ctrls.wrQLenPdf::13                      1                       # What write queue length does an incoming req see
system.mem_ctrls.wrQLenPdf::14                      1                       # What write queue length does an incoming req see
system.mem_ctrls.wrQLenPdf::15                     27                       # What write queue length does an incoming req see
system.mem_ctrls.wrQLenPdf::16                     27                       # What write queue length does an incoming req see
system.mem_ctrls.wrQLenPdf::17                     54                       # What write queue length does an incoming req see
system.mem_ctrls.wrQLenPdf::18                     75                       # What write queue length does an incoming req see
system.mem_ctrls.wrQLenPdf::19                     78                       # What write queue length does an incoming req see
system.mem_ctrls.wrQLenPdf::20                     81                       # What write queue length does an incoming req see
system.mem_ctrls.wrQLenPdf::21                     78                       # What write queue length does an incoming req see
system.mem_ctrls.wrQLenPdf::22                     79                       # What write queue length does an incoming req see
system.mem_ctrls.wrQLenPdf::23                     81                       # What write queue length does an incoming req see
system.mem_ctrls.wrQLenPdf::24                     79                       # What write queue length does an incoming req see
system.mem_ctrls.wrQLenPdf::25                     80                       # What write queue length does an incoming req see
system.mem_ctrls.wrQLenPdf::26                     81                       # What write queue length does an incoming req see
system.mem_ctrls.wrQLenPdf::27                     81                       # What write queue length does an incoming req see
system.mem_ctrls.wrQLenPdf::28                     79                       # What write queue length does an incoming req see
system.mem_ctrls.wrQLenPdf::29                     79                       # What write queue length does an incoming req see
system.mem_ctrls.wrQLenPdf::30                     85                       # What write queue length does an incoming req see
system.mem_ctrls.wrQLenPdf::31                     80                       # What write queue length does an incoming req see
system.mem_ctrls.wrQLenPdf::32                     80                       # What write queue length does an incoming req see
system.mem_ctrls.wrQLenPdf::33                      0                       # What write queue length does an incoming req see
system.mem_ctrls.wrQLenPdf::34                      0                       # What write queue length does an incoming req see
system.mem_ctrls.wrQLenPdf::35                      0                       # What write queue length does an incoming req see
system.mem_ctrls.wrQLenPdf::36                      0                       # What write queue length does an incoming req see
system.mem_ctrls.wrQLenPdf::37                      0                       # What write queue length does an incoming req see
system.mem_ctrls.wrQLenPdf::38                      0                       # What write queue length does an incoming req see
system.mem_ctrls.wrQLenPdf::39                      0                       # What write queue length does an incoming req see
system.mem_ctrls.wrQLenPdf::40                      0                       # What write queue length does an incoming req see
system.mem_ctrls.wrQLenPdf::41                      0                       # What write queue length does an incoming req see
system.mem_ctrls.wrQLenPdf::42                      0                       # What write queue length does an incoming req see
system.mem_ctrls.wrQLenPdf::43                      0                       # What write queue length does an incoming req see
system.mem_ctrls.wrQLenPdf::44                      0                       # What write queue length does an incoming req see
system.mem_ctrls.wrQLenPdf::45                      0                       # What write queue length does an incoming req see
system.mem_ctrls.wrQLenPdf::46                      0                       # What write queue length does an incoming req see
system.mem_ctrls.wrQLenPdf::47                      0                       # What write queue length does an incoming req see
system.mem_ctrls.wrQLenPdf::48                      0                       # What write queue length does an incoming req see
system.mem_ctrls.wrQLenPdf::49                      0                       # What write queue length does an incoming req see
system.mem_ctrls.wrQLenPdf::50                      0                       # What write queue length does an incoming req see
system.mem_ctrls.wrQLenPdf::51                      0                       # What write queue length does an incoming req see
system.mem_ctrls.wrQLenPdf::52                      0                       # What write queue length does an incoming req see
system.mem_ctrls.wrQLenPdf::53                      0                       # What write queue length does an incoming req see
system.mem_ctrls.wrQLenPdf::54                      0                       # What write queue length does an incoming req see
system.mem_ctrls.wrQLenPdf::55                      0                       # What write queue length does an incoming req see
system.mem_ctrls.wrQLenPdf::56                      0                       # What write queue length does an incoming req see
system.mem_ctrls.wrQLenPdf::57                      0                       # What write queue length does an incoming req see
system.mem_ctrls.wrQLenPdf::58                      0                       # What write queue length does an incoming req see
system.mem_ctrls.wrQLenPdf::59                      0                       # What write queue length does an incoming req see
system.mem_ctrls.wrQLenPdf::60                      0                       # What write queue length does an incoming req see
system.mem_ctrls.wrQLenPdf::61                      0                       # What write queue length does an incoming req see
system.mem_ctrls.wrQLenPdf::62                      0                       # What write queue length does an incoming req see
system.mem_ctrls.wrQLenPdf::63                      0                       # What write queue length does an incoming req see
system.mem_ctrls.bytesPerActivate::samples          739                       # Bytes accessed per row activation
system.mem_ctrls.bytesPerActivate::mean    243.702300                       # Bytes accessed per row activation
system.mem_ctrls.bytesPerActivate::gmean   147.133807                       # Bytes accessed per row activation
system.mem_ctrls.bytesPerActivate::stdev   280.880030                       # Bytes accessed per row activation
system.mem_ctrls.bytesPerActivate::0-127          343     46.41%     46.41% # Bytes accessed per row activation
system.mem_ctrls.bytesPerActivate::128-255          168     22.73%     69.15% # Bytes accessed per row activation
system.mem_ctrls.bytesPerActivate::256-383           74     10.01%     79.16% # Bytes accessed per row activation
system.mem_ctrls.bytesPerActivate::384-511           38      5.14%     84.30% # Bytes accessed per row activation
system.mem_ctrls.bytesPerActivate::512-639           26      3.52%     87.82% # Bytes accessed per row activation
system.mem_ctrls.bytesPerActivate::640-767           10      1.35%     89.17% # Bytes accessed per row activation
system.mem_ctrls.bytesPerActivate::768-895           21      2.84%     92.02% # Bytes accessed per row activation
system.mem_ctrls.bytesPerActivate::896-1023           16      2.17%     94.18% # Bytes accessed per row activation
system.mem_ctrls.bytesPerActivate::1024-1151           43      5.82%    100.00% # Bytes accessed per row activation
system.mem_ctrls.bytesPerActivate::total          739                       # Bytes accessed per row activation
system.mem_ctrls.rdPerTurnAround::samples           77                       # Reads before turning the bus around for writes
system.mem_ctrls.rdPerTurnAround::mean      19.623377                       # Reads before turning the bus around for writes
system.mem_ctrls.rdPerTurnAround::gmean     19.085820                       # Reads before turning the bus around for writes
system.mem_ctrls.rdPerTurnAround::stdev      5.515621                       # Reads before turning the bus around for writes
system.mem_ctrls.rdPerTurnAround::14-15             9     11.69%     11.69% # Reads before turning the bus around for writes
system.mem_ctrls.rdPerTurnAround::16-17            24     31.17%     42.86% # Reads before turning the bus around for writes
system.mem_ctrls.rdPerTurnAround::18-19            12     15.58%     58.44% # Reads before turning the bus around for writes
system.mem_ctrls.rdPerTurnAround::20-21            16     20.78%     79.22% # Reads before turning the bus around for writes
system.mem_ctrls.rdPerTurnAround::22-23             6      7.79%     87.01% # Reads before turning the bus around for writes
system.mem_ctrls.rdPerTurnAround::24-25             4      5.19%     92.21% # Reads before turning the bus around for writes
system.mem_ctrls.rdPerTurnAround::26-27             1      1.30%     93.51% # Reads before turning the bus around for writes
system.mem_ctrls.rdPerTurnAround::28-29             1      1.30%     94.81% # Reads before turning the bus around for writes
system.mem_ctrls.rdPerTurnAround::30-31             2      2.60%     97.40% # Reads before turning the bus around for writes
system.mem_ctrls.rdPerTurnAround::36-37             1      1.30%     98.70% # Reads before turning the bus around for writes
system.mem_ctrls.rdPerTurnAround::52-53             1      1.30%    100.00% # Reads before turning the bus around for writes
system.mem_ctrls.rdPerTurnAround::total            77                       # Reads before turning the bus around for writes
system.mem_ctrls.wrPerTurnAround::samples           77                       # Writes before turning the bus around for reads
system.mem_ctrls.wrPerTurnAround::mean      16.779221                       # Writes before turning the bus around for reads
system.mem_ctrls.wrPerTurnAround::gmean     16.741195                       # Writes before turning the bus around for reads
system.mem_ctrls.wrPerTurnAround::stdev      1.165551                       # Writes before turning the bus around for reads
system.mem_ctrls.wrPerTurnAround::16               51     66.23%     66.23% # Writes before turning the bus around for reads
system.mem_ctrls.wrPerTurnAround::18               20     25.97%     92.21% # Writes before turning the bus around for reads
system.mem_ctrls.wrPerTurnAround::19                5      6.49%     98.70% # Writes before turning the bus around for reads
system.mem_ctrls.wrPerTurnAround::21                1      1.30%    100.00% # Writes before turning the bus around for reads
system.mem_ctrls.wrPerTurnAround::total            77                       # Writes before turning the bus around for reads
system.mem_ctrls.totQLat                    119414250                       # Total ticks spent queuing
system.mem_ctrls.totMemAccLat               147951750                       # Total ticks spent from burst creation until serviced by the DRAM
system.mem_ctrls.totBusLat                    7610000                       # Total ticks spent in databus transfers
system.mem_ctrls.avgQLat                     78458.77                       # Average queueing delay per DRAM burst
system.mem_ctrls.avgBusLat                    5000.00                       # Average bus latency per DRAM burst
system.mem_ctrls.avgMemAccLat                97208.77                       # Average memory access latency per DRAM burst
system.mem_ctrls.avgRdBW                         0.25                       # Average DRAM read bandwidth in MiByte/s
system.mem_ctrls.avgWrBW                         0.22                       # Average achieved write bandwidth in MiByte/s
system.mem_ctrls.avgRdBWSys                      0.25                       # Average system read bandwidth in MiByte/s
system.mem_ctrls.avgWrBWSys                      0.22                       # Average system write bandwidth in MiByte/s
system.mem_ctrls.peakBW                      12800.00                       # Theoretical peak bandwidth in MiByte/s
system.mem_ctrls.busUtil                         0.00                       # Data bus utilization in percentage
system.mem_ctrls.busUtilRead                     0.00                       # Data bus utilization in percentage for reads
system.mem_ctrls.busUtilWrite                    0.00                       # Data bus utilization in percentage for writes
system.mem_ctrls.avgRdQLen                       1.08                       # Average read queue length when enqueuing
system.mem_ctrls.avgWrQLen                      24.56                       # Average write queue length when enqueuing
system.mem_ctrls.readRowHits                     1157                       # Number of row buffer hits during reads
system.mem_ctrls.writeRowHits                     918                       # Number of row buffer hits during writes
system.mem_ctrls.readRowHitRate                 76.02                       # Row buffer hit rate for reads
system.mem_ctrls.writeRowHitRate                69.60                       # Row buffer hit rate for writes
system.mem_ctrls.avgGap                  134046582.19                       # Average gap between requests
system.mem_ctrls.pageHitRate                    73.04                       # Row buffer hit rate, read and write combined
system.mem_ctrls_0.actEnergy                  2291940                       # Energy for activate commands per rank (pJ)
system.mem_ctrls_0.preEnergy                  1218195                       # Energy for precharge commands per rank (pJ)
system.mem_ctrls_0.readEnergy                 2377620                       # Energy for read commands per rank (pJ)
system.mem_ctrls_0.writeEnergy                1665180                       # Energy for write commands per rank (pJ)
system.mem_ctrls_0.refreshEnergy         183777360.000000                       # Energy for refresh commands per rank (pJ)
system.mem_ctrls_0.actBackEnergy             78015900                       # Energy for active background per rank (pJ)
system.mem_ctrls_0.preBackEnergy             15165120                       # Energy for precharge background per rank (pJ)
system.mem_ctrls_0.actPowerDownEnergy       315037860                       # Energy for active power-down per rank (pJ)
system.mem_ctrls_0.prePowerDownEnergy       286229280                       # Energy for precharge power-down per rank (pJ)
system.mem_ctrls_0.selfRefreshEnergy      91443828060                       # Energy for self refresh per rank (pJ)
system.mem_ctrls_0.totalEnergy            92329606515                       # Total energy per rank (pJ)
system.mem_ctrls_0.averagePower            241.418361                       # Core power per rank (mW)
system.mem_ctrls_0.totalIdleTime         368356382000                       # Total Idle time Per DRAM Rank
system.mem_ctrls_0.memoryStateTime::IDLE     33262250                       # Time in different power states
system.mem_ctrls_0.memoryStateTime::REF      78310000                       # Time in different power states
system.mem_ctrls_0.memoryStateTime::SREF 380799666250                       # Time in different power states
system.mem_ctrls_0.memoryStateTime::PRE_PDN    745401500                       # Time in different power states
system.mem_ctrls_0.memoryStateTime::ACT      98990250                       # Time in different power states
system.mem_ctrls_0.memoryStateTime::ACT_PDN    690867250                       # Time in different power states
system.mem_ctrls_1.actEnergy                  2984520                       # Energy for activate commands per rank (pJ)
system.mem_ctrls_1.preEnergy                  1586310                       # Energy for precharge commands per rank (pJ)
system.mem_ctrls_1.readEnergy                 8489460                       # Energy for read commands per rank (pJ)
system.mem_ctrls_1.writeEnergy                5079060                       # Energy for write commands per rank (pJ)
system.mem_ctrls_1.refreshEnergy         131532960.000000                       # Energy for refresh commands per rank (pJ)
system.mem_ctrls_1.actBackEnergy             81497460                       # Energy for active background per rank (pJ)
system.mem_ctrls_1.preBackEnergy             14069760                       # Energy for precharge background per rank (pJ)
system.mem_ctrls_1.actPowerDownEnergy       218732370                       # Energy for active power-down per rank (pJ)
system.mem_ctrls_1.prePowerDownEnergy       194870400                       # Energy for precharge power-down per rank (pJ)
system.mem_ctrls_1.selfRefreshEnergy      91533899460                       # Energy for self refresh per rank (pJ)
system.mem_ctrls_1.totalEnergy            92192741760                       # Total energy per rank (pJ)
system.mem_ctrls_1.averagePower            241.060494                       # Core power per rank (mW)
system.mem_ctrls_1.totalIdleTime         380638798750                       # Total Idle time Per DRAM Rank
system.mem_ctrls_1.memoryStateTime::IDLE     31236000                       # Time in different power states
system.mem_ctrls_1.memoryStateTime::REF      56030000                       # Time in different power states
system.mem_ctrls_1.memoryStateTime::SREF 381243990000                       # Time in different power states
system.mem_ctrls_1.memoryStateTime::PRE_PDN    507477500                       # Time in different power states
system.mem_ctrls_1.memoryStateTime::ACT     128083750                       # Time in different power states
system.mem_ctrls_1.memoryStateTime::ACT_PDN    479680250                       # Time in different power states
system.pwrStateResidencyTicks::UNDEFINED 1043880750500                       # Cumulative time (in ticks) in various power states
system.cpu_voltage_domain.voltage                   1                       # Voltage in Volts
system.cpu_clk_domain.clock                       500                       # Clock period in ticks
system.cpu.dstage2_mmu.stage2_tlb.walker.pwrStateResidencyTicks::UNDEFINED 1043880750500                       # Cumulative time (in ticks) in various power states
system.cpu.dstage2_mmu.stage2_tlb.walker.walks            0                       # Table walker walks requested
system.cpu.dstage2_mmu.stage2_tlb.walker.walkRequestOrigin_Requested::Data            0                       # Table walker requests started/completed, data/inst
system.cpu.dstage2_mmu.stage2_tlb.walker.walkRequestOrigin_Requested::Inst            0                       # Table walker requests started/completed, data/inst
system.cpu.dstage2_mmu.stage2_tlb.walker.walkRequestOrigin_Requested::total            0                       # Table walker requests started/completed, data/inst
system.cpu.dstage2_mmu.stage2_tlb.walker.walkRequestOrigin_Completed::Data            0                       # Table walker requests started/completed, data/inst
system.cpu.dstage2_mmu.stage2_tlb.walker.walkRequestOrigin_Completed::Inst            0                       # Table walker requests started/completed, data/inst
system.cpu.dstage2_mmu.stage2_tlb.walker.walkRequestOrigin_Completed::total            0                       # Table walker requests started/completed, data/inst
system.cpu.dstage2_mmu.stage2_tlb.walker.walkRequestOrigin::total            0                       # Table walker requests started/completed, data/inst
system.cpu.dstage2_mmu.stage2_tlb.inst_hits            0                       # ITB inst hits
system.cpu.dstage2_mmu.stage2_tlb.inst_misses            0                       # ITB inst misses
system.cpu.dstage2_mmu.stage2_tlb.read_hits            0                       # DTB read hits
system.cpu.dstage2_mmu.stage2_tlb.read_misses            0                       # DTB read misses
system.cpu.dstage2_mmu.stage2_tlb.write_hits            0                       # DTB write hits
system.cpu.dstage2_mmu.stage2_tlb.write_misses            0                       # DTB write misses
system.cpu.dstage2_mmu.stage2_tlb.flush_tlb            0                       # Number of times complete TLB was flushed
system.cpu.dstage2_mmu.stage2_tlb.flush_tlb_mva            0                       # Number of times TLB was flushed by MVA
system.cpu.dstage2_mmu.stage2_tlb.flush_tlb_mva_asid            0                       # Number of times TLB was flushed by MVA & ASID
system.cpu.dstage2_mmu.stage2_tlb.flush_tlb_asid            0                       # Number of times TLB was flushed by ASID
system.cpu.dstage2_mmu.stage2_tlb.flush_entries            0                       # Number of entries that have been flushed from TLB
system.cpu.dstage2_mmu.stage2_tlb.align_faults            0                       # Number of TLB faults due to alignment restrictions
system.cpu.dstage2_mmu.stage2_tlb.prefetch_faults            0                       # Number of TLB faults due to prefetch
system.cpu.dstage2_mmu.stage2_tlb.domain_faults            0                       # Number of TLB faults due to domain restrictions
system.cpu.dstage2_mmu.stage2_tlb.perms_faults            0                       # Number of TLB faults due to permissions restrictions
system.cpu.dstage2_mmu.stage2_tlb.read_accesses            0                       # DTB read accesses
system.cpu.dstage2_mmu.stage2_tlb.write_accesses            0                       # DTB write accesses
system.cpu.dstage2_mmu.stage2_tlb.inst_accesses            0                       # ITB inst accesses
system.cpu.dstage2_mmu.stage2_tlb.hits              0                       # DTB hits
system.cpu.dstage2_mmu.stage2_tlb.misses            0                       # DTB misses
system.cpu.dstage2_mmu.stage2_tlb.accesses            0                       # DTB accesses
system.cpu.dtb.walker.pwrStateResidencyTicks::UNDEFINED 1043880750500                       # Cumulative time (in ticks) in various power states
system.cpu.dtb.walker.walks                         0                       # Table walker walks requested
system.cpu.dtb.walker.walkRequestOrigin_Requested::Data            0                       # Table walker requests started/completed, data/inst
system.cpu.dtb.walker.walkRequestOrigin_Requested::Inst            0                       # Table walker requests started/completed, data/inst
system.cpu.dtb.walker.walkRequestOrigin_Requested::total            0                       # Table walker requests started/completed, data/inst
system.cpu.dtb.walker.walkRequestOrigin_Completed::Data            0                       # Table walker requests started/completed, data/inst
system.cpu.dtb.walker.walkRequestOrigin_Completed::Inst            0                       # Table walker requests started/completed, data/inst
system.cpu.dtb.walker.walkRequestOrigin_Completed::total            0                       # Table walker requests started/completed, data/inst
system.cpu.dtb.walker.walkRequestOrigin::total            0                       # Table walker requests started/completed, data/inst
system.cpu.dtb.inst_hits                            0                       # ITB inst hits
system.cpu.dtb.inst_misses                          0                       # ITB inst misses
system.cpu.dtb.read_hits                            0                       # DTB read hits
system.cpu.dtb.read_misses                          0                       # DTB read misses
system.cpu.dtb.write_hits                           0                       # DTB write hits
system.cpu.dtb.write_misses                         0                       # DTB write misses
system.cpu.dtb.flush_tlb                            0                       # Number of times complete TLB was flushed
system.cpu.dtb.flush_tlb_mva                        0                       # Number of times TLB was flushed by MVA
system.cpu.dtb.flush_tlb_mva_asid                   0                       # Number of times TLB was flushed by MVA & ASID
system.cpu.dtb.flush_tlb_asid                       0                       # Number of times TLB was flushed by ASID
system.cpu.dtb.flush_entries                        0                       # Number of entries that have been flushed from TLB
system.cpu.dtb.align_faults                         0                       # Number of TLB faults due to alignment restrictions
system.cpu.dtb.prefetch_faults                      0                       # Number of TLB faults due to prefetch
system.cpu.dtb.domain_faults                        0                       # Number of TLB faults due to domain restrictions
system.cpu.dtb.perms_faults                         0                       # Number of TLB faults due to permissions restrictions
system.cpu.dtb.read_accesses                        0                       # DTB read accesses
system.cpu.dtb.write_accesses                       0                       # DTB write accesses
system.cpu.dtb.inst_accesses                        0                       # ITB inst accesses
system.cpu.dtb.hits                                 0                       # DTB hits
system.cpu.dtb.misses                               0                       # DTB misses
system.cpu.dtb.accesses                             0                       # DTB accesses
system.cpu.istage2_mmu.stage2_tlb.walker.pwrStateResidencyTicks::UNDEFINED 1043880750500                       # Cumulative time (in ticks) in various power states
system.cpu.istage2_mmu.stage2_tlb.walker.walks            0                       # Table walker walks requested
system.cpu.istage2_mmu.stage2_tlb.walker.walkRequestOrigin_Requested::Data            0                       # Table walker requests started/completed, data/inst
system.cpu.istage2_mmu.stage2_tlb.walker.walkRequestOrigin_Requested::Inst            0                       # Table walker requests started/completed, data/inst
system.cpu.istage2_mmu.stage2_tlb.walker.walkRequestOrigin_Requested::total            0                       # Table walker requests started/completed, data/inst
system.cpu.istage2_mmu.stage2_tlb.walker.walkRequestOrigin_Completed::Data            0                       # Table walker requests started/completed, data/inst
system.cpu.istage2_mmu.stage2_tlb.walker.walkRequestOrigin_Completed::Inst            0                       # Table walker requests started/completed, data/inst
system.cpu.istage2_mmu.stage2_tlb.walker.walkRequestOrigin_Completed::total            0                       # Table walker requests started/completed, data/inst
system.cpu.istage2_mmu.stage2_tlb.walker.walkRequestOrigin::total            0                       # Table walker requests started/completed, data/inst
system.cpu.istage2_mmu.stage2_tlb.inst_hits            0                       # ITB inst hits
system.cpu.istage2_mmu.stage2_tlb.inst_misses            0                       # ITB inst misses
system.cpu.istage2_mmu.stage2_tlb.read_hits            0                       # DTB read hits
system.cpu.istage2_mmu.stage2_tlb.read_misses            0                       # DTB read misses
system.cpu.istage2_mmu.stage2_tlb.write_hits            0                       # DTB write hits
system.cpu.istage2_mmu.stage2_tlb.write_misses            0                       # DTB write misses
system.cpu.istage2_mmu.stage2_tlb.flush_tlb            0                       # Number of times complete TLB was flushed
system.cpu.istage2_mmu.stage2_tlb.flush_tlb_mva            0                       # Number of times TLB was flushed by MVA
system.cpu.istage2_mmu.stage2_tlb.flush_tlb_mva_asid            0                       # Number of times TLB was flushed by MVA & ASID
system.cpu.istage2_mmu.stage2_tlb.flush_tlb_asid            0                       # Number of times TLB was flushed by ASID
system.cpu.istage2_mmu.stage2_tlb.flush_entries            0                       # Number of entries that have been flushed from TLB
system.cpu.istage2_mmu.stage2_tlb.align_faults            0                       # Number of TLB faults due to alignment restrictions
system.cpu.istage2_mmu.stage2_tlb.prefetch_faults            0                       # Number of TLB faults due to prefetch
system.cpu.istage2_mmu.stage2_tlb.domain_faults            0                       # Number of TLB faults due to domain restrictions
system.cpu.istage2_mmu.stage2_tlb.perms_faults            0                       # Number of TLB faults due to permissions restrictions
system.cpu.istage2_mmu.stage2_tlb.read_accesses            0                       # DTB read accesses
system.cpu.istage2_mmu.stage2_tlb.write_accesses            0                       # DTB write accesses
system.cpu.istage2_mmu.stage2_tlb.inst_accesses            0                       # ITB inst accesses
system.cpu.istage2_mmu.stage2_tlb.hits              0                       # DTB hits
system.cpu.istage2_mmu.stage2_tlb.misses            0                       # DTB misses
system.cpu.istage2_mmu.stage2_tlb.accesses            0                       # DTB accesses
system.cpu.itb.walker.pwrStateResidencyTicks::UNDEFINED 1043880750500                       # Cumulative time (in ticks) in various power states
system.cpu.itb.walker.walks                         0                       # Table walker walks requested
system.cpu.itb.walker.walkRequestOrigin_Requested::Data            0                       # Table walker requests started/completed, data/inst
system.cpu.itb.walker.walkRequestOrigin_Requested::Inst            0                       # Table walker requests started/completed, data/inst
system.cpu.itb.walker.walkRequestOrigin_Requested::total            0                       # Table walker requests started/completed, data/inst
system.cpu.itb.walker.walkRequestOrigin_Completed::Data            0                       # Table walker requests started/completed, data/inst
system.cpu.itb.walker.walkRequestOrigin_Completed::Inst            0                       # Table walker requests started/completed, data/inst
system.cpu.itb.walker.walkRequestOrigin_Completed::total            0                       # Table walker requests started/completed, data/inst
system.cpu.itb.walker.walkRequestOrigin::total            0                       # Table walker requests started/completed, data/inst
system.cpu.itb.inst_hits                            0                       # ITB inst hits
system.cpu.itb.inst_misses                          0                       # ITB inst misses
system.cpu.itb.read_hits                            0                       # DTB read hits
system.cpu.itb.read_misses                          0                       # DTB read misses
system.cpu.itb.write_hits                           0                       # DTB write hits
system.cpu.itb.write_misses                         0                       # DTB write misses
system.cpu.itb.flush_tlb                            0                       # Number of times complete TLB was flushed
system.cpu.itb.flush_tlb_mva                        0                       # Number of times TLB was flushed by MVA
system.cpu.itb.flush_tlb_mva_asid                   0                       # Number of times TLB was flushed by MVA & ASID
system.cpu.itb.flush_tlb_asid                       0                       # Number of times TLB was flushed by ASID
system.cpu.itb.flush_entries                        0                       # Number of entries that have been flushed from TLB
system.cpu.itb.align_faults                         0                       # Number of TLB faults due to alignment restrictions
system.cpu.itb.prefetch_faults                      0                       # Number of TLB faults due to prefetch
system.cpu.itb.domain_faults                        0                       # Number of TLB faults due to domain restrictions
system.cpu.itb.perms_faults                         0                       # Number of TLB faults due to permissions restrictions
system.cpu.itb.read_accesses                        0                       # DTB read accesses
system.cpu.itb.write_accesses                       0                       # DTB write accesses
system.cpu.itb.inst_accesses                        0                       # ITB inst accesses
system.cpu.itb.hits                                 0                       # DTB hits
system.cpu.itb.misses                               0                       # DTB misses
system.cpu.itb.accesses                             0                       # DTB accesses
system.cpu.workload.numSyscalls                     7                       # Number of system calls
system.cpu.pwrStateResidencyTicks::ON    1043880750500                       # Cumulative time (in ticks) in various power states
system.cpu.numCycles                                0                       # number of cpu cycles simulated
system.cpu.numWorkItemsStarted                      0                       # number of work items this cpu started
system.cpu.numWorkItemsCompleted                    0                       # number of work items this cpu completed
system.cpu.committedInsts                           0                       # Number of instructions committed
system.cpu.committedOps                             0                       # Number of ops (including micro ops) committed
system.cpu.num_int_alu_accesses                     0                       # Number of integer alu accesses
system.cpu.num_fp_alu_accesses                      0                       # Number of float alu accesses
system.cpu.num_vec_alu_accesses                     0                       # Number of vector alu accesses
system.cpu.num_func_calls                           0                       # number of times a function call or return occured
system.cpu.num_conditional_control_insts            0                       # number of instructions that are conditional controls
system.cpu.num_int_insts                            0                       # number of integer instructions
system.cpu.num_fp_insts                             0                       # number of float instructions
system.cpu.num_vec_insts                            0                       # number of vector instructions
system.cpu.num_int_register_reads                   0                       # number of times the integer registers were read
system.cpu.num_int_register_writes                  0                       # number of times the integer registers were written
system.cpu.num_fp_register_reads                    0                       # number of times the floating registers were read
system.cpu.num_fp_register_writes                   0                       # number of times the floating registers were written
system.cpu.num_vec_register_reads                   0                       # number of times the vector registers were read
system.cpu.num_vec_register_writes                  0                       # number of times the vector registers were written
system.cpu.num_mem_refs                             0                       # number of memory refs
system.cpu.num_load_insts                           0                       # Number of load instructions
system.cpu.num_store_insts                          0                       # Number of store instructions
system.cpu.num_idle_cycles                          0                       # Number of idle cycles
system.cpu.num_busy_cycles                          0                       # Number of busy cycles
system.cpu.not_idle_fraction                        1                       # Percentage of non-idle cycles
system.cpu.idle_fraction                            0                       # Percentage of idle cycles
system.cpu.op_class::No_OpClass                     0                       # Class of executed instruction
system.cpu.op_class::IntAlu                         0                       # Class of executed instruction
system.cpu.op_class::IntMult                        0                       # Class of executed instruction
system.cpu.op_class::IntDiv                         0                       # Class of executed instruction
system.cpu.op_class::FloatAdd                       0                       # Class of executed instruction
system.cpu.op_class::FloatCmp                       0                       # Class of executed instruction
system.cpu.op_class::FloatCvt                       0                       # Class of executed instruction
system.cpu.op_class::FloatMult                      0                       # Class of executed instruction
system.cpu.op_class::FloatMultAcc                   0                       # Class of executed instruction
system.cpu.op_class::FloatDiv                       0                       # Class of executed instruction
system.cpu.op_class::FloatMisc                      0                       # Class of executed instruction
system.cpu.op_class::FloatSqrt                      0                       # Class of executed instruction
system.cpu.op_class::SimdAdd                        0                       # Class of executed instruction
system.cpu.op_class::SimdAddAcc                     0                       # Class of executed instruction
system.cpu.op_class::SimdAlu                        0                       # Class of executed instruction
system.cpu.op_class::SimdCmp                        0                       # Class of executed instruction
system.cpu.op_class::SimdCvt                        0                       # Class of executed instruction
system.cpu.op_class::SimdMisc                       0                       # Class of executed instruction
system.cpu.op_class::SimdMult                       0                       # Class of executed instruction
system.cpu.op_class::SimdMultAcc                    0                       # Class of executed instruction
system.cpu.op_class::SimdShift                      0                       # Class of executed instruction
system.cpu.op_class::SimdShiftAcc                   0                       # Class of executed instruction
system.cpu.op_class::SimdSqrt                       0                       # Class of executed instruction
system.cpu.op_class::SimdFloatAdd                   0                       # Class of executed instruction
system.cpu.op_class::SimdFloatAlu                   0                       # Class of executed instruction
system.cpu.op_class::SimdFloatCmp                   0                       # Class of executed instruction
system.cpu.op_class::SimdFloatCvt                   0                       # Class of executed instruction
system.cpu.op_class::SimdFloatDiv                   0                       # Class of executed instruction
system.cpu.op_class::SimdFloatMisc                  0                       # Class of executed instruction
system.cpu.op_class::SimdFloatMult                  0                       # Class of executed instruction
system.cpu.op_class::SimdFloatMultAcc               0                       # Class of executed instruction
system.cpu.op_class::SimdFloatSqrt                  0                       # Class of executed instruction
system.cpu.op_class::MemRead                        0                       # Class of executed instruction
system.cpu.op_class::MemWrite                       0                       # Class of executed instruction
system.cpu.op_class::FloatMemRead                   0                       # Class of executed instruction
system.cpu.op_class::FloatMemWrite                  0                       # Class of executed instruction
system.cpu.op_class::IprAccess                      0                       # Class of executed instruction
system.cpu.op_class::InstPrefetch                   0                       # Class of executed instruction
system.cpu.op_class::total                          0                       # Class of executed instruction
system.cpu.dcache.tags.pwrStateResidencyTicks::UNDEFINED 1043880750500                       # Cumulative time (in ticks) in various power states
system.cpu.dcache.tags.replacements           2116007                       # number of replacements
system.cpu.dcache.tags.tagsinuse                 1024                       # Cycle average of tags in use
system.cpu.dcache.tags.total_refs           496734308                       # Total number of references to valid blocks.
system.cpu.dcache.tags.sampled_refs           2117031                       # Sample count of references to valid blocks.
system.cpu.dcache.tags.avg_refs            234.637239                       # Average number of references to valid blocks.
system.cpu.dcache.tags.warmup_cycle                 0                       # Cycle when the warmup percentage was hit.
system.cpu.dcache.tags.occ_blocks::cpu.data     0.182902                       # Average occupied blocks per requestor
system.cpu.dcache.tags.occ_blocks::switch_cpus.data  1023.817098                       # Average occupied blocks per requestor
system.cpu.dcache.tags.occ_percent::cpu.data     0.000179                       # Average percentage of cache occupancy
system.cpu.dcache.tags.occ_percent::switch_cpus.data     0.999821                       # Average percentage of cache occupancy
system.cpu.dcache.tags.occ_percent::total            1                       # Average percentage of cache occupancy
system.cpu.dcache.tags.occ_task_id_blocks::1024         1024                       # Occupied blocks per task id
system.cpu.dcache.tags.age_task_id_blocks_1024::0            8                       # Occupied blocks per task id
system.cpu.dcache.tags.age_task_id_blocks_1024::1           35                       # Occupied blocks per task id
system.cpu.dcache.tags.age_task_id_blocks_1024::2          130                       # Occupied blocks per task id
system.cpu.dcache.tags.age_task_id_blocks_1024::3          627                       # Occupied blocks per task id
system.cpu.dcache.tags.age_task_id_blocks_1024::4          224                       # Occupied blocks per task id
system.cpu.dcache.tags.occ_task_id_percent::1024            1                       # Percentage of cache occupancy per task id
system.cpu.dcache.tags.tag_accesses        1002617301                       # Number of tag accesses
system.cpu.dcache.tags.data_accesses       1002617301                       # Number of data accesses
system.cpu.dcache.pwrStateResidencyTicks::UNDEFINED 1043880750500                       # Cumulative time (in ticks) in various power states
system.cpu.dcache.ReadReq_hits::switch_cpus.data    362428913                       # number of ReadReq hits
system.cpu.dcache.ReadReq_hits::total       362428913                       # number of ReadReq hits
system.cpu.dcache.WriteReq_hits::switch_cpus.data    131680383                       # number of WriteReq hits
system.cpu.dcache.WriteReq_hits::total      131680383                       # number of WriteReq hits
system.cpu.dcache.SoftPFReq_hits::switch_cpus.data        11841                       # number of SoftPFReq hits
system.cpu.dcache.SoftPFReq_hits::total         11841                       # number of SoftPFReq hits
system.cpu.dcache.LoadLockedReq_hits::switch_cpus.data      1054940                       # number of LoadLockedReq hits
system.cpu.dcache.LoadLockedReq_hits::total      1054940                       # number of LoadLockedReq hits
system.cpu.dcache.StoreCondReq_hits::switch_cpus.data      1055614                       # number of StoreCondReq hits
system.cpu.dcache.StoreCondReq_hits::total      1055614                       # number of StoreCondReq hits
system.cpu.dcache.demand_hits::switch_cpus.data    494109296                       # number of demand (read+write) hits
system.cpu.dcache.demand_hits::total        494109296                       # number of demand (read+write) hits
system.cpu.dcache.overall_hits::switch_cpus.data    494121137                       # number of overall hits
system.cpu.dcache.overall_hits::total       494121137                       # number of overall hits
system.cpu.dcache.ReadReq_misses::switch_cpus.data      2293159                       # number of ReadReq misses
system.cpu.dcache.ReadReq_misses::total       2293159                       # number of ReadReq misses
system.cpu.dcache.WriteReq_misses::switch_cpus.data      1724884                       # number of WriteReq misses
system.cpu.dcache.WriteReq_misses::total      1724884                       # number of WriteReq misses
system.cpu.dcache.SoftPFReq_misses::switch_cpus.data          239                       # number of SoftPFReq misses
system.cpu.dcache.SoftPFReq_misses::total          239                       # number of SoftPFReq misses
system.cpu.dcache.LoadLockedReq_misses::switch_cpus.data          674                       # number of LoadLockedReq misses
system.cpu.dcache.LoadLockedReq_misses::total          674                       # number of LoadLockedReq misses
system.cpu.dcache.demand_misses::switch_cpus.data      4018043                       # number of demand (read+write) misses
system.cpu.dcache.demand_misses::total        4018043                       # number of demand (read+write) misses
system.cpu.dcache.overall_misses::switch_cpus.data      4018282                       # number of overall misses
system.cpu.dcache.overall_misses::total       4018282                       # number of overall misses
system.cpu.dcache.ReadReq_miss_latency::switch_cpus.data  23380830000                       # number of ReadReq miss cycles
system.cpu.dcache.ReadReq_miss_latency::total  23380830000                       # number of ReadReq miss cycles
system.cpu.dcache.WriteReq_miss_latency::switch_cpus.data  20294384334                       # number of WriteReq miss cycles
system.cpu.dcache.WriteReq_miss_latency::total  20294384334                       # number of WriteReq miss cycles
system.cpu.dcache.LoadLockedReq_miss_latency::switch_cpus.data      8762000                       # number of LoadLockedReq miss cycles
system.cpu.dcache.LoadLockedReq_miss_latency::total      8762000                       # number of LoadLockedReq miss cycles
system.cpu.dcache.demand_miss_latency::switch_cpus.data  43675214334                       # number of demand (read+write) miss cycles
system.cpu.dcache.demand_miss_latency::total  43675214334                       # number of demand (read+write) miss cycles
system.cpu.dcache.overall_miss_latency::switch_cpus.data  43675214334                       # number of overall miss cycles
system.cpu.dcache.overall_miss_latency::total  43675214334                       # number of overall miss cycles
system.cpu.dcache.ReadReq_accesses::switch_cpus.data    364722072                       # number of ReadReq accesses(hits+misses)
system.cpu.dcache.ReadReq_accesses::total    364722072                       # number of ReadReq accesses(hits+misses)
system.cpu.dcache.WriteReq_accesses::switch_cpus.data    133405267                       # number of WriteReq accesses(hits+misses)
system.cpu.dcache.WriteReq_accesses::total    133405267                       # number of WriteReq accesses(hits+misses)
system.cpu.dcache.SoftPFReq_accesses::switch_cpus.data        12080                       # number of SoftPFReq accesses(hits+misses)
system.cpu.dcache.SoftPFReq_accesses::total        12080                       # number of SoftPFReq accesses(hits+misses)
system.cpu.dcache.LoadLockedReq_accesses::switch_cpus.data      1055614                       # number of LoadLockedReq accesses(hits+misses)
system.cpu.dcache.LoadLockedReq_accesses::total      1055614                       # number of LoadLockedReq accesses(hits+misses)
system.cpu.dcache.StoreCondReq_accesses::switch_cpus.data      1055614                       # number of StoreCondReq accesses(hits+misses)
system.cpu.dcache.StoreCondReq_accesses::total      1055614                       # number of StoreCondReq accesses(hits+misses)
system.cpu.dcache.demand_accesses::switch_cpus.data    498127339                       # number of demand (read+write) accesses
system.cpu.dcache.demand_accesses::total    498127339                       # number of demand (read+write) accesses
system.cpu.dcache.overall_accesses::switch_cpus.data    498139419                       # number of overall (read+write) accesses
system.cpu.dcache.overall_accesses::total    498139419                       # number of overall (read+write) accesses
system.cpu.dcache.ReadReq_miss_rate::switch_cpus.data     0.006287                       # miss rate for ReadReq accesses
system.cpu.dcache.ReadReq_miss_rate::total     0.006287                       # miss rate for ReadReq accesses
system.cpu.dcache.WriteReq_miss_rate::switch_cpus.data     0.012930                       # miss rate for WriteReq accesses
system.cpu.dcache.WriteReq_miss_rate::total     0.012930                       # miss rate for WriteReq accesses
system.cpu.dcache.SoftPFReq_miss_rate::switch_cpus.data     0.019785                       # miss rate for SoftPFReq accesses
system.cpu.dcache.SoftPFReq_miss_rate::total     0.019785                       # miss rate for SoftPFReq accesses
system.cpu.dcache.LoadLockedReq_miss_rate::switch_cpus.data     0.000638                       # miss rate for LoadLockedReq accesses
system.cpu.dcache.LoadLockedReq_miss_rate::total     0.000638                       # miss rate for LoadLockedReq accesses
system.cpu.dcache.demand_miss_rate::switch_cpus.data     0.008066                       # miss rate for demand accesses
system.cpu.dcache.demand_miss_rate::total     0.008066                       # miss rate for demand accesses
system.cpu.dcache.overall_miss_rate::switch_cpus.data     0.008067                       # miss rate for overall accesses
system.cpu.dcache.overall_miss_rate::total     0.008067                       # miss rate for overall accesses
system.cpu.dcache.ReadReq_avg_miss_latency::switch_cpus.data 10195.904427                       # average ReadReq miss latency
system.cpu.dcache.ReadReq_avg_miss_latency::total 10195.904427                       # average ReadReq miss latency
system.cpu.dcache.WriteReq_avg_miss_latency::switch_cpus.data 11765.651681                       # average WriteReq miss latency
system.cpu.dcache.WriteReq_avg_miss_latency::total 11765.651681                       # average WriteReq miss latency
system.cpu.dcache.LoadLockedReq_avg_miss_latency::switch_cpus.data        13000                       # average LoadLockedReq miss latency
system.cpu.dcache.LoadLockedReq_avg_miss_latency::total        13000                       # average LoadLockedReq miss latency
system.cpu.dcache.demand_avg_miss_latency::switch_cpus.data 10869.772756                       # average overall miss latency
system.cpu.dcache.demand_avg_miss_latency::total 10869.772756                       # average overall miss latency
system.cpu.dcache.overall_avg_miss_latency::switch_cpus.data 10869.126242                       # average overall miss latency
system.cpu.dcache.overall_avg_miss_latency::total 10869.126242                       # average overall miss latency
system.cpu.dcache.blocked_cycles::no_mshrs      1216021                       # number of cycles access was blocked
system.cpu.dcache.blocked_cycles::no_targets            0                       # number of cycles access was blocked
system.cpu.dcache.blocked::no_mshrs            191940                       # number of cycles access was blocked
system.cpu.dcache.blocked::no_targets               0                       # number of cycles access was blocked
system.cpu.dcache.avg_blocked_cycles::no_mshrs     6.335423                       # average number of cycles each access was blocked
system.cpu.dcache.avg_blocked_cycles::no_targets          nan                       # average number of cycles each access was blocked
system.cpu.dcache.writebacks::writebacks      2085611                       # number of writebacks
system.cpu.dcache.writebacks::total           2085611                       # number of writebacks
system.cpu.dcache.ReadReq_mshr_hits::switch_cpus.data      1302555                       # number of ReadReq MSHR hits
system.cpu.dcache.ReadReq_mshr_hits::total      1302555                       # number of ReadReq MSHR hits
system.cpu.dcache.WriteReq_mshr_hits::switch_cpus.data       600266                       # number of WriteReq MSHR hits
system.cpu.dcache.WriteReq_mshr_hits::total       600266                       # number of WriteReq MSHR hits
system.cpu.dcache.demand_mshr_hits::switch_cpus.data      1902821                       # number of demand (read+write) MSHR hits
system.cpu.dcache.demand_mshr_hits::total      1902821                       # number of demand (read+write) MSHR hits
system.cpu.dcache.overall_mshr_hits::switch_cpus.data      1902821                       # number of overall MSHR hits
system.cpu.dcache.overall_mshr_hits::total      1902821                       # number of overall MSHR hits
system.cpu.dcache.ReadReq_mshr_misses::switch_cpus.data       990604                       # number of ReadReq MSHR misses
system.cpu.dcache.ReadReq_mshr_misses::total       990604                       # number of ReadReq MSHR misses
system.cpu.dcache.WriteReq_mshr_misses::switch_cpus.data      1124618                       # number of WriteReq MSHR misses
system.cpu.dcache.WriteReq_mshr_misses::total      1124618                       # number of WriteReq MSHR misses
system.cpu.dcache.SoftPFReq_mshr_misses::switch_cpus.data          111                       # number of SoftPFReq MSHR misses
system.cpu.dcache.SoftPFReq_mshr_misses::total          111                       # number of SoftPFReq MSHR misses
system.cpu.dcache.LoadLockedReq_mshr_misses::switch_cpus.data          674                       # number of LoadLockedReq MSHR misses
system.cpu.dcache.LoadLockedReq_mshr_misses::total          674                       # number of LoadLockedReq MSHR misses
system.cpu.dcache.demand_mshr_misses::switch_cpus.data      2115222                       # number of demand (read+write) MSHR misses
system.cpu.dcache.demand_mshr_misses::total      2115222                       # number of demand (read+write) MSHR misses
system.cpu.dcache.overall_mshr_misses::switch_cpus.data      2115333                       # number of overall MSHR misses
system.cpu.dcache.overall_mshr_misses::total      2115333                       # number of overall MSHR misses
system.cpu.dcache.ReadReq_mshr_miss_latency::switch_cpus.data  12107779500                       # number of ReadReq MSHR miss cycles
system.cpu.dcache.ReadReq_mshr_miss_latency::total  12107779500                       # number of ReadReq MSHR miss cycles
system.cpu.dcache.WriteReq_mshr_miss_latency::switch_cpus.data  13777740744                       # number of WriteReq MSHR miss cycles
system.cpu.dcache.WriteReq_mshr_miss_latency::total  13777740744                       # number of WriteReq MSHR miss cycles
system.cpu.dcache.SoftPFReq_mshr_miss_latency::switch_cpus.data      1474500                       # number of SoftPFReq MSHR miss cycles
system.cpu.dcache.SoftPFReq_mshr_miss_latency::total      1474500                       # number of SoftPFReq MSHR miss cycles
system.cpu.dcache.LoadLockedReq_mshr_miss_latency::switch_cpus.data      8088000                       # number of LoadLockedReq MSHR miss cycles
system.cpu.dcache.LoadLockedReq_mshr_miss_latency::total      8088000                       # number of LoadLockedReq MSHR miss cycles
system.cpu.dcache.demand_mshr_miss_latency::switch_cpus.data  25885520244                       # number of demand (read+write) MSHR miss cycles
system.cpu.dcache.demand_mshr_miss_latency::total  25885520244                       # number of demand (read+write) MSHR miss cycles
system.cpu.dcache.overall_mshr_miss_latency::switch_cpus.data  25886994744                       # number of overall MSHR miss cycles
system.cpu.dcache.overall_mshr_miss_latency::total  25886994744                       # number of overall MSHR miss cycles
system.cpu.dcache.ReadReq_mshr_miss_rate::switch_cpus.data     0.002716                       # mshr miss rate for ReadReq accesses
system.cpu.dcache.ReadReq_mshr_miss_rate::total     0.002716                       # mshr miss rate for ReadReq accesses
system.cpu.dcache.WriteReq_mshr_miss_rate::switch_cpus.data     0.008430                       # mshr miss rate for WriteReq accesses
system.cpu.dcache.WriteReq_mshr_miss_rate::total     0.008430                       # mshr miss rate for WriteReq accesses
system.cpu.dcache.SoftPFReq_mshr_miss_rate::switch_cpus.data     0.009189                       # mshr miss rate for SoftPFReq accesses
system.cpu.dcache.SoftPFReq_mshr_miss_rate::total     0.009189                       # mshr miss rate for SoftPFReq accesses
system.cpu.dcache.LoadLockedReq_mshr_miss_rate::switch_cpus.data     0.000638                       # mshr miss rate for LoadLockedReq accesses
system.cpu.dcache.LoadLockedReq_mshr_miss_rate::total     0.000638                       # mshr miss rate for LoadLockedReq accesses
system.cpu.dcache.demand_mshr_miss_rate::switch_cpus.data     0.004246                       # mshr miss rate for demand accesses
system.cpu.dcache.demand_mshr_miss_rate::total     0.004246                       # mshr miss rate for demand accesses
system.cpu.dcache.overall_mshr_miss_rate::switch_cpus.data     0.004246                       # mshr miss rate for overall accesses
system.cpu.dcache.overall_mshr_miss_rate::total     0.004246                       # mshr miss rate for overall accesses
system.cpu.dcache.ReadReq_avg_mshr_miss_latency::switch_cpus.data 12222.623268                       # average ReadReq mshr miss latency
system.cpu.dcache.ReadReq_avg_mshr_miss_latency::total 12222.623268                       # average ReadReq mshr miss latency
system.cpu.dcache.WriteReq_avg_mshr_miss_latency::switch_cpus.data 12251.040570                       # average WriteReq mshr miss latency
system.cpu.dcache.WriteReq_avg_mshr_miss_latency::total 12251.040570                       # average WriteReq mshr miss latency
system.cpu.dcache.SoftPFReq_avg_mshr_miss_latency::switch_cpus.data 13283.783784                       # average SoftPFReq mshr miss latency
system.cpu.dcache.SoftPFReq_avg_mshr_miss_latency::total 13283.783784                       # average SoftPFReq mshr miss latency
system.cpu.dcache.LoadLockedReq_avg_mshr_miss_latency::switch_cpus.data        12000                       # average LoadLockedReq mshr miss latency
system.cpu.dcache.LoadLockedReq_avg_mshr_miss_latency::total        12000                       # average LoadLockedReq mshr miss latency
system.cpu.dcache.demand_avg_mshr_miss_latency::switch_cpus.data 12237.732136                       # average overall mshr miss latency
system.cpu.dcache.demand_avg_mshr_miss_latency::total 12237.732136                       # average overall mshr miss latency
system.cpu.dcache.overall_avg_mshr_miss_latency::switch_cpus.data 12237.787026                       # average overall mshr miss latency
system.cpu.dcache.overall_avg_mshr_miss_latency::total 12237.787026                       # average overall mshr miss latency
system.cpu.icache.tags.pwrStateResidencyTicks::UNDEFINED 1043880750500                       # Cumulative time (in ticks) in various power states
system.cpu.icache.tags.replacements            772630                       # number of replacements
system.cpu.icache.tags.tagsinuse                  512                       # Cycle average of tags in use
system.cpu.icache.tags.total_refs           358023165                       # Total number of references to valid blocks.
system.cpu.icache.tags.sampled_refs            773142                       # Sample count of references to valid blocks.
system.cpu.icache.tags.avg_refs            463.075561                       # Average number of references to valid blocks.
system.cpu.icache.tags.warmup_cycle                 0                       # Cycle when the warmup percentage was hit.
system.cpu.icache.tags.occ_blocks::cpu.inst    15.462926                       # Average occupied blocks per requestor
system.cpu.icache.tags.occ_blocks::switch_cpus.inst   496.537074                       # Average occupied blocks per requestor
system.cpu.icache.tags.occ_percent::cpu.inst     0.030201                       # Average percentage of cache occupancy
system.cpu.icache.tags.occ_percent::switch_cpus.inst     0.969799                       # Average percentage of cache occupancy
system.cpu.icache.tags.occ_percent::total            1                       # Average percentage of cache occupancy
system.cpu.icache.tags.occ_task_id_blocks::1024          512                       # Occupied blocks per task id
system.cpu.icache.tags.age_task_id_blocks_1024::0           71                       # Occupied blocks per task id
system.cpu.icache.tags.age_task_id_blocks_1024::1           29                       # Occupied blocks per task id
system.cpu.icache.tags.age_task_id_blocks_1024::2           26                       # Occupied blocks per task id
system.cpu.icache.tags.age_task_id_blocks_1024::3           18                       # Occupied blocks per task id
system.cpu.icache.tags.age_task_id_blocks_1024::4          368                       # Occupied blocks per task id
system.cpu.icache.tags.occ_task_id_percent::1024            1                       # Percentage of cache occupancy per task id
system.cpu.icache.tags.tag_accesses         483278764                       # Number of tag accesses
system.cpu.icache.tags.data_accesses        483278764                       # Number of data accesses
system.cpu.icache.pwrStateResidencyTicks::UNDEFINED 1043880750500                       # Cumulative time (in ticks) in various power states
system.cpu.icache.ReadReq_hits::switch_cpus.inst    240460955                       # number of ReadReq hits
system.cpu.icache.ReadReq_hits::total       240460955                       # number of ReadReq hits
system.cpu.icache.demand_hits::switch_cpus.inst    240460955                       # number of demand (read+write) hits
system.cpu.icache.demand_hits::total        240460955                       # number of demand (read+write) hits
system.cpu.icache.overall_hits::switch_cpus.inst    240460955                       # number of overall hits
system.cpu.icache.overall_hits::total       240460955                       # number of overall hits
system.cpu.icache.ReadReq_misses::switch_cpus.inst       792112                       # number of ReadReq misses
system.cpu.icache.ReadReq_misses::total        792112                       # number of ReadReq misses
[...]
system.switch_cpus.iew.lsq.thread0.ignoredResponses        38427                       # Number of memory responses ignored because the instruction is squashed
system.switch_cpus.iew.lsq.thread0.memOrderViolation        44802                       # Number of memory ordering violations
system.switch_cpus.iew.lsq.thread0.squashedStores      1568057                       # Number of stores squashed
system.switch_cpus.iew.lsq.thread0.invAddrSwpfs            0                       # Number of software prefetches ignored due to an invalid address
system.switch_cpus.iew.lsq.thread0.blockedLoads            0                       # Number of blocked loads due to partial load-store forwarding
system.switch_cpus.iew.lsq.thread0.rescheduledLoads        18355                       # Number of loads that were rescheduled
system.switch_cpus.iew.lsq.thread0.cacheBlocked       954191                       # Number of times an access to memory failed due to the cache being blocked
system.switch_cpus.iew.iewIdleCycles                0                       # Number of cycles IEW is idle
system.switch_cpus.iew.iewSquashCycles        2107345                       # Number of cycles IEW is squashing
system.switch_cpus.iew.iewBlockCycles         1356797                       # Number of cycles IEW is blocking
system.switch_cpus.iew.iewUnblockCycles       3103218                       # Number of cycles IEW is unblocking
system.switch_cpus.iew.iewDispatchedInsts   1077667658                       # Number of instructions dispatched to IQ
system.switch_cpus.iew.iewDispSquashedInsts            0                       # Number of squashed instructions skipped by dispatch
system.switch_cpus.iew.iewDispLoadInsts     379705951                       # Number of dispatched load instructions
system.switch_cpus.iew.iewDispStoreInsts    136214364                       # Number of dispatched store instructions
system.switch_cpus.iew.iewDispNonSpecInsts      1113159                       # Number of dispatched non-speculative instructions
system.switch_cpus.iew.iewIQFullEvents           8629                       # Number of times the IQ has become full, causing a stall
system.switch_cpus.iew.iewLSQFullEvents       3086175                       # Number of times the LSQ has become full, causing a stall
system.switch_cpus.iew.memOrderViolationEvents        44802                       # Number of memory order violations
system.switch_cpus.iew.predictedTakenIncorrect      1388488                       # Number of branches that were predicted taken incorrectly
system.switch_cpus.iew.predictedNotTakenIncorrect       709411                       # Number of branches that were predicted not taken incorrectly
system.switch_cpus.iew.branchMispredicts      2097899                       # Number of branch mispredicts detected at execute
system.switch_cpus.iew.iewExecutedInsts    1066110060                       # Number of executed instructions
system.switch_cpus.iew.iewExecLoadInsts     377170164                       # Number of load instructions executed
system.switch_cpus.iew.iewExecSquashedInsts      3354332                       # Number of squashed instructions skipped in execute
system.switch_cpus.iew.exec_swp                     0                       # number of swp insts executed
system.switch_cpus.iew.exec_nop                  1730                       # number of nop insts executed
system.switch_cpus.iew.exec_refs            512246771                       # number of memory reference insts executed
system.switch_cpus.iew.exec_branches         79436637                       # Number of branches executed
system.switch_cpus.iew.exec_stores          135076607                       # Number of stores executed
system.switch_cpus.iew.exec_rate             1.393803                       # Inst execution rate
system.switch_cpus.iew.wb_sent             1063794739                       # cumulative count of insts sent to commit
system.switch_cpus.iew.wb_count            1063551434                       # cumulative count of insts written-back
system.switch_cpus.iew.wb_producers         538918433                       # num instructions producing a value
system.switch_cpus.iew.wb_consumers         793434635                       # num instructions consuming a value
system.switch_cpus.iew.wb_rate               1.390458                       # insts written-back per cycle
system.switch_cpus.iew.wb_fanout             0.679222                       # average fanout of values written-back
system.switch_cpus.commit.commitSquashedInsts     17225381                       # The number of squashed insts skipped by commit
system.switch_cpus.commit.commitNonSpecStalls      3166849                       # The number of times commit has been forced to stall to communicate backwards
system.switch_cpus.commit.branchMispredicts      2065380                       # The number of times a branch was mispredicted
system.switch_cpus.commit.committed_per_cycle::samples    760924296                       # Number of insts commited each cycle
system.switch_cpus.commit.committed_per_cycle::mean     1.388956                       # Number of insts commited each cycle
system.switch_cpus.commit.committed_per_cycle::stdev     1.908733                       # Number of insts commited each cycle
system.switch_cpus.commit.committed_per_cycle::underflows            0      0.00%      0.00% # Number of insts commited each cycle
system.switch_cpus.commit.committed_per_cycle::0    351517958     46.20%     46.20% # Number of insts commited each cycle
system.switch_cpus.commit.committed_per_cycle::1    157237085     20.66%     66.86% # Number of insts commited each cycle
system.switch_cpus.commit.committed_per_cycle::2     92406019     12.14%     79.00% # Number of insts commited each cycle
system.switch_cpus.commit.committed_per_cycle::3     75543940      9.93%     88.93% # Number of insts commited each cycle
system.switch_cpus.commit.committed_per_cycle::4     20704678      2.72%     91.65% # Number of insts commited each cycle
system.switch_cpus.commit.committed_per_cycle::5     26721023      3.51%     95.16% # Number of insts commited each cycle
system.switch_cpus.commit.committed_per_cycle::6      8908289      1.17%     96.34% # Number of insts commited each cycle
system.switch_cpus.commit.committed_per_cycle::7      4746335      0.62%     96.96% # Number of insts commited each cycle
system.switch_cpus.commit.committed_per_cycle::8     23138969      3.04%    100.00% # Number of insts commited each cycle
system.switch_cpus.commit.committed_per_cycle::overflows            0      0.00%    100.00% # Number of insts commited each cycle
system.switch_cpus.commit.committed_per_cycle::min_value            0                       # Number of insts commited each cycle
system.switch_cpus.commit.committed_per_cycle::max_value            8                       # Number of insts commited each cycle
system.switch_cpus.commit.committed_per_cycle::total    760924296                       # Number of insts commited each cycle
system.switch_cpus.commit.committedInsts   1000001568                       # Number of instructions committed
system.switch_cpus.commit.committedOps     1056890601                       # Number of ops (including micro ops) committed
system.switch_cpus.commit.swp_count                 0                       # Number of s/w prefetches committed
system.switch_cpus.commit.refs              507666740                       # Number of memory references committed
system.switch_cpus.commit.loads             373020433                       # Number of loads committed
system.switch_cpus.commit.membars             2111228                       # Number of memory barriers committed
system.switch_cpus.commit.branches           78539885                       # Number of branches committed
system.switch_cpus.commit.vec_insts                 0                       # Number of committed Vector instructions.
system.switch_cpus.commit.fp_insts          277019137                       # Number of committed floating point instructions.
system.switch_cpus.commit.int_insts         876645110                       # Number of committed integer instructions.
system.switch_cpus.commit.function_calls      3369340                       # Number of function calls committed.
system.switch_cpus.commit.op_class_0::No_OpClass            0      0.00%      0.00% # Class of committed instruction
system.switch_cpus.commit.op_class_0::IntAlu    429456752     40.63%     40.63% # Class of committed instruction
system.switch_cpus.commit.op_class_0::IntMult      9272930      0.88%     41.51% # Class of committed instruction
system.switch_cpus.commit.op_class_0::IntDiv       157483      0.01%     41.53% # Class of committed instruction
system.switch_cpus.commit.op_class_0::FloatAdd            0      0.00%     41.53% # Class of committed instruction
system.switch_cpus.commit.op_class_0::FloatCmp            0      0.00%     41.53% # Class of committed instruction
system.switch_cpus.commit.op_class_0::FloatCvt            0      0.00%     41.53% # Class of committed instruction
system.switch_cpus.commit.op_class_0::FloatMult            0      0.00%     41.53% # Class of committed instruction
system.switch_cpus.commit.op_class_0::FloatMultAcc            0      0.00%     41.53% # Class of committed instruction
system.switch_cpus.commit.op_class_0::FloatDiv            0      0.00%     41.53% # Class of committed instruction
system.switch_cpus.commit.op_class_0::FloatMisc            0      0.00%     41.53% # Class of committed instruction
system.switch_cpus.commit.op_class_0::FloatSqrt            0      0.00%     41.53% # Class of committed instruction
system.switch_cpus.commit.op_class_0::SimdAdd            0      0.00%     41.53% # Class of committed instruction
system.switch_cpus.commit.op_class_0::SimdAddAcc            0      0.00%     41.53% # Class of committed instruction
system.switch_cpus.commit.op_class_0::SimdAlu            0      0.00%     41.53% # Class of committed instruction
system.switch_cpus.commit.op_class_0::SimdCmp            0      0.00%     41.53% # Class of committed instruction
system.switch_cpus.commit.op_class_0::SimdCvt            0      0.00%     41.53% # Class of committed instruction
system.switch_cpus.commit.op_class_0::SimdMisc            0      0.00%     41.53% # Class of committed instruction
system.switch_cpus.commit.op_class_0::SimdMult            0      0.00%     41.53% # Class of committed instruction
system.switch_cpus.commit.op_class_0::SimdMultAcc            0      0.00%     41.53% # Class of committed instruction
system.switch_cpus.commit.op_class_0::SimdShift            0      0.00%     41.53% # Class of committed instruction
system.switch_cpus.commit.op_class_0::SimdShiftAcc            0      0.00%     41.53% # Class of committed instruction
system.switch_cpus.commit.op_class_0::SimdSqrt            0      0.00%     41.53% # Class of committed instruction
system.switch_cpus.commit.op_class_0::SimdFloatAdd      5812158      0.55%     42.08% # Class of committed instruction
system.switch_cpus.commit.op_class_0::SimdFloatAlu            0      0.00%     42.08% # Class of committed instruction
system.switch_cpus.commit.op_class_0::SimdFloatCmp      3238820      0.31%     42.38% # Class of committed instruction
system.switch_cpus.commit.op_class_0::SimdFloatCvt      1721727      0.16%     42.55% # Class of committed instruction
system.switch_cpus.commit.op_class_0::SimdFloatDiv      1632692      0.15%     42.70% # Class of committed instruction
system.switch_cpus.commit.op_class_0::SimdFloatMisc     15288694      1.45%     44.15% # Class of committed instruction
system.switch_cpus.commit.op_class_0::SimdFloatMult     37403751      3.54%     47.69% # Class of committed instruction
system.switch_cpus.commit.op_class_0::SimdFloatMultAcc     44295586      4.19%     51.88% # Class of committed instruction
system.switch_cpus.commit.op_class_0::SimdFloatSqrt       943268      0.09%     51.97% # Class of committed instruction
system.switch_cpus.commit.op_class_0::MemRead    247438951     23.41%     75.38% # Class of committed instruction
system.switch_cpus.commit.op_class_0::MemWrite     90306528      8.54%     83.92% # Class of committed instruction
system.switch_cpus.commit.op_class_0::FloatMemRead    125581482     11.88%     95.80% # Class of committed instruction
system.switch_cpus.commit.op_class_0::FloatMemWrite     44339779      4.20%    100.00% # Class of committed instruction
system.switch_cpus.commit.op_class_0::IprAccess            0      0.00%    100.00% # Class of committed instruction
system.switch_cpus.commit.op_class_0::InstPrefetch            0      0.00%    100.00% # Class of committed instruction
system.switch_cpus.commit.op_class_0::total   1056890601                       # Class of committed instruction
system.switch_cpus.commit.bw_lim_events      23138969                       # number cycles where commit BW limit reached
system.switch_cpus.rob.rob_reads           1811901218                       # The number of ROB reads
system.switch_cpus.rob.rob_writes          2151611777                       # The number of ROB writes
system.switch_cpus.timesIdled                  243670                       # Number of times that the entire CPU went into an idle state and unscheduled itself
system.switch_cpus.idleCycles                  589984                       # Total number of cycles that the CPU has spent unscheduled due to idling
system.switch_cpus.committedInsts          1000000000                       # Number of Instructions Simulated
system.switch_cpus.committedOps            1056889033                       # Number of Ops (including micro ops) Simulated
system.switch_cpus.cpi                       0.764893                       # CPI: Cycles Per Instruction
system.switch_cpus.cpi_total                 0.764893                       # CPI: Total CPI of All Threads
system.switch_cpus.ipc                       1.307372                       # IPC: Instructions Per Cycle
system.switch_cpus.ipc_total                 1.307372                       # IPC: Total IPC of All Threads
system.switch_cpus.int_regfile_reads       1176970562                       # number of integer regfile reads
system.switch_cpus.int_regfile_writes       560952292                       # number of integer regfile writes
system.switch_cpus.fp_regfile_reads         548883861                       # number of floating regfile reads
system.switch_cpus.fp_regfile_writes        442415613                       # number of floating regfile writes
system.switch_cpus.cc_regfile_reads        4323764164                       # number of cc regfile reads
system.switch_cpus.cc_regfile_writes        442244659                       # number of cc regfile writes
system.switch_cpus.misc_regfile_reads      2548036711                       # number of misc regfile reads
system.switch_cpus.misc_regfile_writes       99405272                       # number of misc regfile writes
system.tol2bus.snoop_filter.tot_requests      5777274                       # Total number of requests made to the snoop filter.
system.tol2bus.snoop_filter.hit_single_requests      2888639                       # Number of requests hitting in the snoop filter with a single holder of the requested data.
system.tol2bus.snoop_filter.hit_multi_requests        35837                       # Number of requests hitting in the snoop filter with multiple (>1) holders of the requested data.
system.tol2bus.snoop_filter.tot_snoops              0                       # Total number of snoops made to the snoop filter.
system.tol2bus.snoop_filter.hit_single_snoops            0                       # Number of snoops hitting in the snoop filter with a single holder of the requested data.
system.tol2bus.snoop_filter.hit_multi_snoops            0                       # Number of snoops hitting in the snoop filter with multiple (>1) holders of the requested data.
system.tol2bus.pwrStateResidencyTicks::UNDEFINED 1043880750500                       # Cumulative time (in ticks) in various power states
system.tol2bus.trans_dist::ReadResp           1763988                       # Transaction distribution
system.tol2bus.trans_dist::WritebackDirty      2086930                       # Transaction distribution
system.tol2bus.trans_dist::WritebackClean       772630                       # Transaction distribution
system.tol2bus.trans_dist::CleanEvict           30600                       # Transaction distribution
system.tol2bus.trans_dist::ReadExReq          1124649                       # Transaction distribution
system.tol2bus.trans_dist::ReadExResp         1124649                       # Transaction distribution
system.tol2bus.trans_dist::ReadCleanReq        772630                       # Transaction distribution
system.tol2bus.trans_dist::ReadSharedReq       991358                       # Transaction distribution
system.tol2bus.pkt_count_system.cpu.icache.mem_side::system.l2.cpu_side      2317890                       # Packet count per connected master and slave (bytes)
system.tol2bus.pkt_count_system.cpu.dcache.mem_side::system.l2.cpu_side      6348021                       # Packet count per connected master and slave (bytes)
system.tol2bus.pkt_count::total               8665911                       # Packet count per connected master and slave (bytes)
system.tol2bus.pkt_size_system.cpu.icache.mem_side::system.l2.cpu_side     98896640                       # Cumulative packet size per connected master and slave (bytes)
system.tol2bus.pkt_size_system.cpu.dcache.mem_side::system.l2.cpu_side    268903552                       # Cumulative packet size per connected master and slave (bytes)
system.tol2bus.pkt_size::total              367800192                       # Cumulative packet size per connected master and slave (bytes)
system.tol2bus.snoops                            1523                       # Total snoops (count)
system.tol2bus.snoopTraffic                     84416                       # Total snoop traffic (bytes)
system.tol2bus.snoop_fanout::samples          2890160                       # Request fanout histogram
system.tol2bus.snoop_fanout::mean            0.012400                       # Request fanout histogram
system.tol2bus.snoop_fanout::stdev           0.110664                       # Request fanout histogram
system.tol2bus.snoop_fanout::underflows             0      0.00%      0.00% # Request fanout histogram
system.tol2bus.snoop_fanout::0                2854321     98.76%     98.76% # Request fanout histogram
system.tol2bus.snoop_fanout::1                  35839      1.24%    100.00% # Request fanout histogram
system.tol2bus.snoop_fanout::2                      0      0.00%    100.00% # Request fanout histogram
system.tol2bus.snoop_fanout::overflows              0      0.00%    100.00% # Request fanout histogram
system.tol2bus.snoop_fanout::min_value              0                       # Request fanout histogram
system.tol2bus.snoop_fanout::max_value              1                       # Request fanout histogram
system.tol2bus.snoop_fanout::total            2890160                       # Request fanout histogram
system.tol2bus.reqLayer0.occupancy         5746878000                       # Layer occupancy (ticks)
system.tol2bus.reqLayer0.utilization              1.5                       # Layer utilization (%)
system.tol2bus.respLayer0.occupancy        1159580726                       # Layer occupancy (ticks)
system.tol2bus.respLayer0.utilization             0.3                       # Layer utilization (%)
system.tol2bus.respLayer1.occupancy        3174023474                       # Layer occupancy (ticks)
system.tol2bus.respLayer1.utilization             0.8                       # Layer utilization (%)

---------- End Simulation Statistics   ----------
