
---------- Begin Simulation Statistics ----------
sim_seconds                                  0.317825                       # Number of seconds simulated
sim_ticks                                317825054500                       # Number of ticks simulated
final_tick                               979259307500                       # Number of ticks from beginning of simulation (restored from checkpoints and never reset)
sim_freq                                 1000000000000                       # Frequency of simulated ticks
host_inst_rate                                 231723                       # Simulator instruction rate (inst/s)
host_op_rate                                   257693                       # Simulator op (including micro ops) rate (op/s)
host_tick_rate                               36823627                       # Simulator tick rate (ticks/s)
host_mem_usage                                2259808                       # Number of bytes of host memory used
host_seconds                                  8631.01                       # Real time elapsed on the host
sim_insts                                  2000000003                       # Number of instructions simulated
sim_ops                                    2224147476                       # Number of ops (including micro ops) simulated
system.voltage_domain.voltage                       1                       # Voltage in Volts
system.clk_domain.clock                           500                       # Clock period in ticks
system.mem_ctrls.pwrStateResidencyTicks::UNDEFINED 979259307500                       # Cumulative time (in ticks) in various power states
system.mem_ctrls.bytes_read::l2.prefetcher       116032                       # Number of bytes read from this memory
system.mem_ctrls.bytes_read::switch_cpus.inst      1585536                       # Number of bytes read from this memory
system.mem_ctrls.bytes_read::switch_cpus.data       828736                       # Number of bytes read from this memory
system.mem_ctrls.bytes_read::total            2530304                       # Number of bytes read from this memory
system.mem_ctrls.bytes_inst_read::switch_cpus.inst      1585536                       # Number of instructions bytes read from this memory
system.mem_ctrls.bytes_inst_read::total       1585536                       # Number of instructions bytes read from this memory
system.mem_ctrls.bytes_written::writebacks       161472                       # Number of bytes written to this memory
system.mem_ctrls.bytes_written::total          161472                       # Number of bytes written to this memory
system.mem_ctrls.num_reads::l2.prefetcher         1813                       # Number of read requests responded to by this memory
system.mem_ctrls.num_reads::switch_cpus.inst        24774                       # Number of read requests responded to by this memory
system.mem_ctrls.num_reads::switch_cpus.data        12949                       # Number of read requests responded to by this memory
system.mem_ctrls.num_reads::total               39536                       # Number of read requests responded to by this memory
system.mem_ctrls.num_writes::writebacks          2523                       # Number of write requests responded to by this memory
system.mem_ctrls.num_writes::total               2523                       # Number of write requests responded to by this memory
system.mem_ctrls.bw_read::l2.prefetcher        365081                       # Total read bandwidth from this memory (bytes/s)
system.mem_ctrls.bw_read::switch_cpus.inst      4988707                       # Total read bandwidth from this memory (bytes/s)
system.mem_ctrls.bw_read::switch_cpus.data      2607523                       # Total read bandwidth from this memory (bytes/s)
system.mem_ctrls.bw_read::total               7961311                       # Total read bandwidth from this memory (bytes/s)
system.mem_ctrls.bw_inst_read::switch_cpus.inst      4988707                       # Instruction read bandwidth from this memory (bytes/s)
system.mem_ctrls.bw_inst_read::total          4988707                       # Instruction read bandwidth from this memory (bytes/s)
system.mem_ctrls.bw_write::writebacks          508053                       # Write bandwidth from this memory (bytes/s)
system.mem_ctrls.bw_write::total               508053                       # Write bandwidth from this memory (bytes/s)
system.mem_ctrls.bw_total::writebacks          508053                       # Total bandwidth to/from this memory (bytes/s)
system.mem_ctrls.bw_total::l2.prefetcher       365081                       # Total bandwidth to/from this memory (bytes/s)
system.mem_ctrls.bw_total::switch_cpus.inst      4988707                       # Total bandwidth to/from this memory (bytes/s)
system.mem_ctrls.bw_total::switch_cpus.data      2607523                       # Total bandwidth to/from this memory (bytes/s)
system.mem_ctrls.bw_total::total              8469364                       # Total bandwidth to/from this memory (bytes/s)
system.mem_ctrls.readReqs                       39536                       # Number of read requests accepted
system.mem_ctrls.writeReqs                       2523                       # Number of write requests accepted
system.mem_ctrls.readBursts                     39536                       # Number of DRAM read bursts, including those serviced by the write queue
system.mem_ctrls.writeBursts                     2523                       # Number of DRAM write bursts, including those merged in the write queue
system.mem_ctrls.bytesReadDRAM                2525184                       # Total number of bytes read from DRAM
system.mem_ctrls.bytesReadWrQ                    5120                       # Total number of bytes read from write queue
system.mem_ctrls.bytesWritten                  160320                       # Total number of bytes written to DRAM
system.mem_ctrls.bytesReadSys                 2530304                       # Total read bytes from the system interface side
system.mem_ctrls.bytesWrittenSys               161472                       # Total written bytes from the system interface side
system.mem_ctrls.servicedByWrQ                     80                       # Number of DRAM read bursts serviced by the write queue
system.mem_ctrls.mergedWrBursts                     0                       # Number of DRAM write bursts merged with an existing one
system.mem_ctrls.neitherReadNorWriteReqs            0                       # Number of requests that are neither read nor write
system.mem_ctrls.perBankRdBursts::0               351                       # Per bank write bursts
system.mem_ctrls.perBankRdBursts::1              6401                       # Per bank write bursts
system.mem_ctrls.perBankRdBursts::2               397                       # Per bank write bursts
system.mem_ctrls.perBankRdBursts::3              7351                       # Per bank write bursts
system.mem_ctrls.perBankRdBursts::4              1114                       # Per bank write bursts
system.mem_ctrls.perBankRdBursts::5             10092                       # Per bank write bursts
system.mem_ctrls.perBankRdBursts::6               114                       # Per bank write bursts
system.mem_ctrls.perBankRdBursts::7              1217                       # Per bank write bursts
system.mem_ctrls.perBankRdBursts::8              2061                       # Per bank write bursts
system.mem_ctrls.perBankRdBursts::9              6853                       # Per bank write bursts
system.mem_ctrls.perBankRdBursts::10              702                       # Per bank write bursts
system.mem_ctrls.perBankRdBursts::11             1229                       # Per bank write bursts
system.mem_ctrls.perBankRdBursts::12              396                       # Per bank write bursts
system.mem_ctrls.perBankRdBursts::13              213                       # Per bank write bursts
system.mem_ctrls.perBankRdBursts::14              545                       # Per bank write bursts
system.mem_ctrls.perBankRdBursts::15              420                       # Per bank write bursts
system.mem_ctrls.perBankWrBursts::0                62                       # Per bank write bursts
system.mem_ctrls.perBankWrBursts::1               100                       # Per bank write bursts
system.mem_ctrls.perBankWrBursts::2                31                       # Per bank write bursts
system.mem_ctrls.perBankWrBursts::3               191                       # Per bank write bursts
system.mem_ctrls.perBankWrBursts::4               113                       # Per bank write bursts
system.mem_ctrls.perBankWrBursts::5               108                       # Per bank write bursts
system.mem_ctrls.perBankWrBursts::6                81                       # Per bank write bursts
system.mem_ctrls.perBankWrBursts::7               112                       # Per bank write bursts
system.mem_ctrls.perBankWrBursts::8               258                       # Per bank write bursts
system.mem_ctrls.perBankWrBursts::9               394                       # Per bank write bursts
system.mem_ctrls.perBankWrBursts::10              410                       # Per bank write bursts
system.mem_ctrls.perBankWrBursts::11              175                       # Per bank write bursts
system.mem_ctrls.perBankWrBursts::12              157                       # Per bank write bursts
system.mem_ctrls.perBankWrBursts::13              167                       # Per bank write bursts
system.mem_ctrls.perBankWrBursts::14               79                       # Per bank write bursts
system.mem_ctrls.perBankWrBursts::15               67                       # Per bank write bursts
system.mem_ctrls.numRdRetry                         0                       # Number of times read queue was full causing retry
system.mem_ctrls.numWrRetry                         0                       # Number of times write queue was full causing retry
system.mem_ctrls.totGap                  317812428000                       # Total gap between requests
system.mem_ctrls.readPktSize::0                     0                       # Read request sizes (log2)
system.mem_ctrls.readPktSize::1                     0                       # Read request sizes (log2)
system.mem_ctrls.readPktSize::2                     0                       # Read request sizes (log2)
system.mem_ctrls.readPktSize::3                     0                       # Read request sizes (log2)
system.mem_ctrls.readPktSize::4                     0                       # Read request sizes (log2)
system.mem_ctrls.readPktSize::5                     0                       # Read request sizes (log2)
system.mem_ctrls.readPktSize::6                 39536                       # Read request sizes (log2)
system.mem_ctrls.writePktSize::0                    0                       # Write request sizes (log2)
system.mem_ctrls.writePktSize::1                    0                       # Write request sizes (log2)
system.mem_ctrls.writePktSize::2                    0                       # Write request sizes (log2)
system.mem_ctrls.writePktSize::3                    0                       # Write request sizes (log2)
system.mem_ctrls.writePktSize::4                    0                       # Write request sizes (log2)
system.mem_ctrls.writePktSize::5                    0                       # Write request sizes (log2)
system.mem_ctrls.writePktSize::6                 2523                       # Write request sizes (log2)
system.mem_ctrls.rdQLenPdf::0                   36059                       # What read queue length does an incoming req see
system.mem_ctrls.rdQLenPdf::1                    2132                       # What read queue length does an incoming req see
system.mem_ctrls.rdQLenPdf::2                    1081                       # What read queue length does an incoming req see
system.mem_ctrls.rdQLenPdf::3                      65                       # What read queue length does an incoming req see
system.mem_ctrls.rdQLenPdf::4                      32                       # What read queue length does an incoming req see
system.mem_ctrls.rdQLenPdf::5                      28                       # What read queue length does an incoming req see
system.mem_ctrls.rdQLenPdf::6                      23                       # What read queue length does an incoming req see
system.mem_ctrls.rdQLenPdf::7                      20                       # What read queue length does an incoming req see
system.mem_ctrls.rdQLenPdf::8                      16                       # What read queue length does an incoming req see
system.mem_ctrls.rdQLenPdf::9                       0                       # What read queue length does an incoming req see
system.mem_ctrls.rdQLenPdf::10                      0                       # What read queue length does an incoming req see
system.mem_ctrls.rdQLenPdf::11                      0                       # What read queue length does an incoming req see
system.mem_ctrls.rdQLenPdf::12                      0                       # What read queue length does an incoming req see
system.mem_ctrls.rdQLenPdf::13                      0                       # What read queue length does an incoming req see
system.mem_ctrls.rdQLenPdf::14                      0                       # What read queue length does an incoming req see
system.mem_ctrls.rdQLenPdf::15                      0                       # What read queue length does an incoming req see
system.mem_ctrls.rdQLenPdf::16                      0                       # What read queue length does an incoming req see
system.mem_ctrls.rdQLenPdf::17                      0                       # What read queue length does an incoming req see
system.mem_ctrls.rdQLenPdf::18                      0                       # What read queue length does an incoming req see
system.mem_ctrls.rdQLenPdf::19                      0                       # What read queue length does an incoming req see
system.mem_ctrls.rdQLenPdf::20                      0                       # What read queue length does an incoming req see
system.mem_ctrls.rdQLenPdf::21                      0                       # What read queue length does an incoming req see
system.mem_ctrls.rdQLenPdf::22                      0                       # What read queue length does an incoming req see
system.mem_ctrls.rdQLenPdf::23                      0                       # What read queue length does an incoming req see
system.mem_ctrls.rdQLenPdf::24                      0                       # What read queue length does an incoming req see
system.mem_ctrls.rdQLenPdf::25                      0                       # What read queue length does an incoming req see
system.mem_ctrls.rdQLenPdf::26                      0                       # What read queue length does an incoming req see
system.mem_ctrls.rdQLenPdf::27                      0                       # What read queue length does an incoming req see
system.mem_ctrls.rdQLenPdf::28                      0                       # What read queue length does an incoming req see
system.mem_ctrls.rdQLenPdf::29                      0                       # What read queue length does an incoming req see
system.mem_ctrls.rdQLenPdf::30                      0                       # What read queue length does an incoming req see
system.mem_ctrls.rdQLenPdf::31                      0                       # What read queue length does an incoming req see
system.mem_ctrls.wrQLenPdf::0                       1                       # What write queue length does an incoming req see
system.mem_ctrls.wrQLenPdf::1                       1                       # What write queue length does an incoming req see
system.mem_ctrls.wrQLenPdf::2                       1                       # What write queue length does an incoming req see
system.mem_ctrls.wrQLenPdf::3                       1                       # What write queue length does an incoming req see
system.mem_ctrls.wrQLenPdf::4                       1                       # What write queue length does an incoming req see
system.mem_ctrls.wrQLenPdf::5                       1                       # What write queue length does an incoming req see
system.mem_ctrls.wrQLenPdf::6                       1                       # What write queue length does an incoming req see
system.mem_ctrls.wrQLenPdf::7                       1                       # What write queue length does an incoming req see
system.mem_ctrls.wrQLenPdf::8                       1                       # What write queue length does an incoming req see
system.mem_ctrls.wrQLenPdf::9                       1                       # What write queue length does an incoming req see
system.mem_ctrls.wrQLenPdf::10                      1                       # What write queue length does an incoming req see
system.mem_ctrls.wrQLenPdf::11                      1                       # What write queue length does an incoming req see
system.mem_ctrls.wrQLenPdf::12                      1                       # What write queue length does an incoming req see
system.mem_ctrls.wrQLenPdf::13                      1                       # What write queue length does an incoming req see
system.mem_ctrls.wrQLenPdf::14                      1                       # What write queue length does an incoming req see
system.mem_ctrls.wrQLenPdf::15                     98                       # What write queue length does an incoming req see
system.mem_ctrls.wrQLenPdf::16                    107                       # What write queue length does an incoming req see
system.mem_ctrls.wrQLenPdf::17                    128                       # What write queue length does an incoming req see
system.mem_ctrls.wrQLenPdf::18                    134                       # What write queue length does an incoming req see
system.mem_ctrls.wrQLenPdf::19                    137                       # What write queue length does an incoming req see
system.mem_ctrls.wrQLenPdf::20                    138                       # What write queue length does an incoming req see
system.mem_ctrls.wrQLenPdf::21                    143                       # What write queue length does an incoming req see
system.mem_ctrls.wrQLenPdf::22                    144                       # What write queue length does an incoming req see
system.mem_ctrls.wrQLenPdf::23                    144                       # What write queue length does an incoming req see
system.mem_ctrls.wrQLenPdf::24                    144                       # What write queue length does an incoming req see
system.mem_ctrls.wrQLenPdf::25                    143                       # What write queue length does an incoming req see
system.mem_ctrls.wrQLenPdf::26                    146                       # What write queue length does an incoming req see
system.mem_ctrls.wrQLenPdf::27                    155                       # What write queue length does an incoming req see
system.mem_ctrls.wrQLenPdf::28                    150                       # What write queue length does an incoming req see
system.mem_ctrls.wrQLenPdf::29                    154                       # What write queue length does an incoming req see
system.mem_ctrls.wrQLenPdf::30                    146                       # What write queue length does an incoming req see
system.mem_ctrls.wrQLenPdf::31                    143                       # What write queue length does an incoming req see
system.mem_ctrls.wrQLenPdf::32                    143                       # What write queue length does an incoming req see
system.mem_ctrls.wrQLenPdf::33                     11                       # What write queue length does an incoming req see
system.mem_ctrls.wrQLenPdf::34                      0                       # What write queue length does an incoming req see
system.mem_ctrls.wrQLenPdf::35                      0                       # What write queue length does an incoming req see
system.mem_ctrls.wrQLenPdf::36                      0                       # What write queue length does an incoming req see
system.mem_ctrls.wrQLenPdf::37                      0                       # What write queue length does an incoming req see
system.mem_ctrls.wrQLenPdf::38                      0                       # What write queue length does an incoming req see
system.mem_ctrls.wrQLenPdf::39                      0                       # What write queue length does an incoming req see
system.mem_ctrls.wrQLenPdf::40                      0                       # What write queue length does an incoming req see
system.mem_ctrls.wrQLenPdf::41                      0                       # What write queue length does an incoming req see
system.mem_ctrls.wrQLenPdf::42                      0                       # What write queue length does an incoming req see
system.mem_ctrls.wrQLenPdf::43                      0                       # What write queue length does an incoming req see
system.mem_ctrls.wrQLenPdf::44                      0                       # What write queue length does an incoming req see
system.mem_ctrls.wrQLenPdf::45                      0                       # What write queue length does an incoming req see
system.mem_ctrls.wrQLenPdf::46                      0                       # What write queue length does an incoming req see
system.mem_ctrls.wrQLenPdf::47                      0                       # What write queue length does an incoming req see
system.mem_ctrls.wrQLenPdf::48                      0                       # What write queue length does an incoming req see
system.mem_ctrls.wrQLenPdf::49                      0                       # What write queue length does an incoming req see
system.mem_ctrls.wrQLenPdf::50                      0                       # What write queue length does an incoming req see
system.mem_ctrls.wrQLenPdf::51                      0                       # What write queue length does an incoming req see
system.mem_ctrls.wrQLenPdf::52                      0                       # What write queue length does an incoming req see
system.mem_ctrls.wrQLenPdf::53                      0                       # What write queue length does an incoming req see
system.mem_ctrls.wrQLenPdf::54                      0                       # What write queue length does an incoming req see
system.mem_ctrls.wrQLenPdf::55                      0                       # What write queue length does an incoming req see
system.mem_ctrls.wrQLenPdf::56                      0                       # What write queue length does an incoming req see
system.mem_ctrls.wrQLenPdf::57                      0                       # What write queue length does an incoming req see
system.mem_ctrls.wrQLenPdf::58                      0                       # What write queue length does an incoming req see
system.mem_ctrls.wrQLenPdf::59                      0                       # What write queue length does an incoming req see
system.mem_ctrls.wrQLenPdf::60                      0                       # What write queue length does an incoming req see
system.mem_ctrls.wrQLenPdf::61                      0                       # What write queue length does an incoming req see
system.mem_ctrls.wrQLenPdf::62                      0                       # What write queue length does an incoming req see
system.mem_ctrls.wrQLenPdf::63                      0                       # What write queue length does an incoming req see
system.mem_ctrls.bytesPerActivate::samples        31715                       # Bytes accessed per row activation
system.mem_ctrls.bytesPerActivate::mean     84.672111                       # Bytes accessed per row activation
system.mem_ctrls.bytesPerActivate::gmean    75.768554                       # Bytes accessed per row activation
system.mem_ctrls.bytesPerActivate::stdev    64.421562                       # Bytes accessed per row activation
system.mem_ctrls.bytesPerActivate::0-127        26041     82.11%     82.11% # Bytes accessed per row activation
system.mem_ctrls.bytesPerActivate::128-255         5094     16.06%     98.17% # Bytes accessed per row activation
system.mem_ctrls.bytesPerActivate::256-383          327      1.03%     99.20% # Bytes accessed per row activation
system.mem_ctrls.bytesPerActivate::384-511           97      0.31%     99.51% # Bytes accessed per row activation
system.mem_ctrls.bytesPerActivate::512-639           72      0.23%     99.74% # Bytes accessed per row activation
system.mem_ctrls.bytesPerActivate::640-767           26      0.08%     99.82% # Bytes accessed per row activation
system.mem_ctrls.bytesPerActivate::768-895            5      0.02%     99.83% # Bytes accessed per row activation
system.mem_ctrls.bytesPerActivate::896-1023           10      0.03%     99.86% # Bytes accessed per row activation
system.mem_ctrls.bytesPerActivate::1024-1151           43      0.14%    100.00% # Bytes accessed per row activation
system.mem_ctrls.bytesPerActivate::total        31715                       # Bytes accessed per row activation
system.mem_ctrls.rdPerTurnAround::samples          137                       # Reads before turning the bus around for writes
system.mem_ctrls.rdPerTurnAround::mean     275.832117                       # Reads before turning the bus around for writes
system.mem_ctrls.rdPerTurnAround::stdev    957.970669                       # Reads before turning the bus around for writes
system.mem_ctrls.rdPerTurnAround::0-511           122     89.05%     89.05% # Reads before turning the bus around for writes
system.mem_ctrls.rdPerTurnAround::512-1023            6      4.38%     93.43% # Reads before turning the bus around for writes
system.mem_ctrls.rdPerTurnAround::1024-1535            2      1.46%     94.89% # Reads before turning the bus around for writes
system.mem_ctrls.rdPerTurnAround::1536-2047            4      2.92%     97.81% # Reads before turning the bus around for writes
system.mem_ctrls.rdPerTurnAround::2560-3071            1      0.73%     98.54% # Reads before turning the bus around for writes
system.mem_ctrls.rdPerTurnAround::6144-6655            1      0.73%     99.27% # Reads before turning the bus around for writes
system.mem_ctrls.rdPerTurnAround::8192-8703            1      0.73%    100.00% # Reads before turning the bus around for writes
system.mem_ctrls.rdPerTurnAround::total           137                       # Reads before turning the bus around for writes
system.mem_ctrls.wrPerTurnAround::samples          137                       # Writes before turning the bus around for reads
system.mem_ctrls.wrPerTurnAround::mean      18.284672                       # Writes before turning the bus around for reads
system.mem_ctrls.wrPerTurnAround::gmean     18.135442                       # Writes before turning the bus around for reads
system.mem_ctrls.wrPerTurnAround::stdev      2.580894                       # Writes before turning the bus around for reads
system.mem_ctrls.wrPerTurnAround::16               37     27.01%     27.01% # Writes before turning the bus around for reads
system.mem_ctrls.wrPerTurnAround::17                2      1.46%     28.47% # Writes before turning the bus around for reads
system.mem_ctrls.wrPerTurnAround::18               63     45.99%     74.45% # Writes before turning the bus around for reads
system.mem_ctrls.wrPerTurnAround::19               14     10.22%     84.67% # Writes before turning the bus around for reads
system.mem_ctrls.wrPerTurnAround::20                7      5.11%     89.78% # Writes before turning the bus around for reads
system.mem_ctrls.wrPerTurnAround::21                4      2.92%     92.70% # Writes before turning the bus around for reads
system.mem_ctrls.wrPerTurnAround::22                3      2.19%     94.89% # Writes before turning the bus around for reads
system.mem_ctrls.wrPerTurnAround::23                2      1.46%     96.35% # Writes before turning the bus around for reads
system.mem_ctrls.wrPerTurnAround::24                1      0.73%     97.08% # Writes before turning the bus around for reads
system.mem_ctrls.wrPerTurnAround::29                2      1.46%     98.54% # Writes before turning the bus around for reads
system.mem_ctrls.wrPerTurnAround::30                1      0.73%     99.27% # Writes before turning the bus around for reads
system.mem_ctrls.wrPerTurnAround::31                1      0.73%    100.00% # Writes before turning the bus around for reads
system.mem_ctrls.wrPerTurnAround::total           137                       # Writes before turning the bus around for reads
system.mem_ctrls.totQLat                   6776365474                       # Total ticks spent queuing
system.mem_ctrls.totMemAccLat              7516165474                       # Total ticks spent from burst creation until serviced by the DRAM
system.mem_ctrls.totBusLat                  197280000                       # Total ticks spent in databus transfers
system.mem_ctrls.avgQLat                    171744.87                       # Average queueing delay per DRAM burst
system.mem_ctrls.avgBusLat                    5000.00                       # Average bus latency per DRAM burst
system.mem_ctrls.avgMemAccLat               190494.87                       # Average memory access latency per DRAM burst
system.mem_ctrls.avgRdBW                         7.95                       # Average DRAM read bandwidth in MiByte/s
system.mem_ctrls.avgWrBW                         0.50                       # Average achieved write bandwidth in MiByte/s
system.mem_ctrls.avgRdBWSys                      7.96                       # Average system read bandwidth in MiByte/s
system.mem_ctrls.avgWrBWSys                      0.51                       # Average system write bandwidth in MiByte/s
system.mem_ctrls.peakBW                      12800.00                       # Theoretical peak bandwidth in MiByte/s
system.mem_ctrls.busUtil                         0.07                       # Data bus utilization in percentage
system.mem_ctrls.busUtilRead                     0.06                       # Data bus utilization in percentage for reads
system.mem_ctrls.busUtilWrite                    0.00                       # Data bus utilization in percentage for writes
system.mem_ctrls.avgRdQLen                       1.11                       # Average read queue length when enqueuing
system.mem_ctrls.avgWrQLen                      25.18                       # Average write queue length when enqueuing
system.mem_ctrls.readRowHits                     9299                       # Number of row buffer hits during reads
system.mem_ctrls.writeRowHits                     945                       # Number of row buffer hits during writes
system.mem_ctrls.readRowHitRate                 23.57                       # Row buffer hit rate for reads
system.mem_ctrls.writeRowHitRate                37.46                       # Row buffer hit rate for writes
system.mem_ctrls.avgGap                    7556347.70                       # Average gap between requests
system.mem_ctrls.pageHitRate                    24.40                       # Row buffer hit rate, read and write combined
system.mem_ctrls_0.actEnergy                150068520                       # Energy for activate commands per rank (pJ)
system.mem_ctrls_0.preEnergy                 79759515                       # Energy for precharge commands per rank (pJ)
system.mem_ctrls_0.readEnergy               193044180                       # Energy for read commands per rank (pJ)
system.mem_ctrls_0.writeEnergy                4165560                       # Energy for write commands per rank (pJ)
system.mem_ctrls_0.refreshEnergy         13890249360.000004                       # Energy for refresh commands per rank (pJ)
system.mem_ctrls_0.actBackEnergy           3074454600                       # Energy for active background per rank (pJ)
system.mem_ctrls_0.preBackEnergy            786263520                       # Energy for precharge background per rank (pJ)
system.mem_ctrls_0.actPowerDownEnergy     30817219860                       # Energy for active power-down per rank (pJ)
system.mem_ctrls_0.prePowerDownEnergy     22757000640                       # Energy for precharge power-down per rank (pJ)
system.mem_ctrls_0.selfRefreshEnergy      46799209560                       # Energy for self refresh per rank (pJ)
system.mem_ctrls_0.totalEnergy           118557863565                       # Total energy per rank (pJ)
system.mem_ctrls_0.averagePower            373.028689                       # Core power per rank (mW)
system.mem_ctrls_0.totalIdleTime         309020225201                       # Total Idle time Per DRAM Rank
system.mem_ctrls_0.memoryStateTime::IDLE   1547015500                       # Time in different power states
system.mem_ctrls_0.memoryStateTime::REF    5909622000                       # Time in different power states
system.mem_ctrls_0.memoryStateTime::SREF 182176346250                       # Time in different power states
system.mem_ctrls_0.memoryStateTime::PRE_PDN  59262975065                       # Time in different power states
system.mem_ctrls_0.memoryStateTime::ACT    1347427299                       # Time in different power states
system.mem_ctrls_0.memoryStateTime::ACT_PDN  67581668386                       # Time in different power states
system.mem_ctrls_1.actEnergy                 76390860                       # Energy for activate commands per rank (pJ)
system.mem_ctrls_1.preEnergy                 40598910                       # Energy for precharge commands per rank (pJ)
system.mem_ctrls_1.readEnergy                88671660                       # Energy for read commands per rank (pJ)
system.mem_ctrls_1.writeEnergy                8910540                       # Energy for write commands per rank (pJ)
system.mem_ctrls_1.refreshEnergy         11571827280.000002                       # Energy for refresh commands per rank (pJ)
system.mem_ctrls_1.actBackEnergy           2424113100                       # Energy for active background per rank (pJ)
system.mem_ctrls_1.preBackEnergy            710758560                       # Energy for precharge background per rank (pJ)
system.mem_ctrls_1.actPowerDownEnergy     23793739140                       # Energy for active power-down per rank (pJ)
system.mem_ctrls_1.prePowerDownEnergy     18758440800                       # Energy for precharge power-down per rank (pJ)
system.mem_ctrls_1.selfRefreshEnergy      53236669185                       # Energy for self refresh per rank (pJ)
system.mem_ctrls_1.totalEnergy           110713875765                       # Total energy per rank (pJ)
system.mem_ctrls_1.averagePower            348.348484                       # Core power per rank (mW)
system.mem_ctrls_1.totalIdleTime         310647092871                       # Total Idle time Per DRAM Rank
system.mem_ctrls_1.memoryStateTime::IDLE   1454860250                       # Time in different power states
system.mem_ctrls_1.memoryStateTime::REF    4927108000                       # Time in different power states
system.mem_ctrls_1.memoryStateTime::SREF 209620414000                       # Time in different power states
system.mem_ctrls_1.memoryStateTime::PRE_PDN  48850141792                       # Time in different power states
system.mem_ctrls_1.memoryStateTime::ACT     793300379                       # Time in different power states
system.mem_ctrls_1.memoryStateTime::ACT_PDN  52179230079                       # Time in different power states
system.pwrStateResidencyTicks::UNDEFINED 979259307500                       # Cumulative time (in ticks) in various power states
system.cpu_voltage_domain.voltage                   1                       # Voltage in Volts
system.cpu_clk_domain.clock                       500                       # Clock period in ticks
system.cpu.dstage2_mmu.stage2_tlb.walker.pwrStateResidencyTicks::UNDEFINED 979259307500                       # Cumulative time (in ticks) in various power states
system.cpu.dstage2_mmu.stage2_tlb.walker.walks            0                       # Table walker walks requested
system.cpu.dstage2_mmu.stage2_tlb.walker.walkRequestOrigin_Requested::Data            0                       # Table walker requests started/completed, data/inst
system.cpu.dstage2_mmu.stage2_tlb.walker.walkRequestOrigin_Requested::Inst            0                       # Table walker requests started/completed, data/inst
system.cpu.dstage2_mmu.stage2_tlb.walker.walkRequestOrigin_Requested::total            0                       # Table walker requests started/completed, data/inst
system.cpu.dstage2_mmu.stage2_tlb.walker.walkRequestOrigin_Completed::Data            0                       # Table walker requests started/completed, data/inst
system.cpu.dstage2_mmu.stage2_tlb.walker.walkRequestOrigin_Completed::Inst            0                       # Table walker requests started/completed, data/inst
system.cpu.dstage2_mmu.stage2_tlb.walker.walkRequestOrigin_Completed::total            0                       # Table walker requests started/completed, data/inst
system.cpu.dstage2_mmu.stage2_tlb.walker.walkRequestOrigin::total            0                       # Table walker requests started/completed, data/inst
system.cpu.dstage2_mmu.stage2_tlb.inst_hits            0                       # ITB inst hits
system.cpu.dstage2_mmu.stage2_tlb.inst_misses            0                       # ITB inst misses
system.cpu.dstage2_mmu.stage2_tlb.read_hits            0                       # DTB read hits
system.cpu.dstage2_mmu.stage2_tlb.read_misses            0                       # DTB read misses
system.cpu.dstage2_mmu.stage2_tlb.write_hits            0                       # DTB write hits
system.cpu.dstage2_mmu.stage2_tlb.write_misses            0                       # DTB write misses
system.cpu.dstage2_mmu.stage2_tlb.flush_tlb            0                       # Number of times complete TLB was flushed
system.cpu.dstage2_mmu.stage2_tlb.flush_tlb_mva            0                       # Number of times TLB was flushed by MVA
system.cpu.dstage2_mmu.stage2_tlb.flush_tlb_mva_asid            0                       # Number of times TLB was flushed by MVA & ASID
system.cpu.dstage2_mmu.stage2_tlb.flush_tlb_asid            0                       # Number of times TLB was flushed by ASID
system.cpu.dstage2_mmu.stage2_tlb.flush_entries            0                       # Number of entries that have been flushed from TLB
system.cpu.dstage2_mmu.stage2_tlb.align_faults            0                       # Number of TLB faults due to alignment restrictions
system.cpu.dstage2_mmu.stage2_tlb.prefetch_faults            0                       # Number of TLB faults due to prefetch
system.cpu.dstage2_mmu.stage2_tlb.domain_faults            0                       # Number of TLB faults due to domain restrictions
system.cpu.dstage2_mmu.stage2_tlb.perms_faults            0                       # Number of TLB faults due to permissions restrictions
system.cpu.dstage2_mmu.stage2_tlb.read_accesses            0                       # DTB read accesses
system.cpu.dstage2_mmu.stage2_tlb.write_accesses            0                       # DTB write accesses
system.cpu.dstage2_mmu.stage2_tlb.inst_accesses            0                       # ITB inst accesses
system.cpu.dstage2_mmu.stage2_tlb.hits              0                       # DTB hits
system.cpu.dstage2_mmu.stage2_tlb.misses            0                       # DTB misses
system.cpu.dstage2_mmu.stage2_tlb.accesses            0                       # DTB accesses
system.cpu.dtb.walker.pwrStateResidencyTicks::UNDEFINED 979259307500                       # Cumulative time (in ticks) in various power states
system.cpu.dtb.walker.walks                         0                       # Table walker walks requested
system.cpu.dtb.walker.walkRequestOrigin_Requested::Data            0                       # Table walker requests started/completed, data/inst
system.cpu.dtb.walker.walkRequestOrigin_Requested::Inst            0                       # Table walker requests started/completed, data/inst
system.cpu.dtb.walker.walkRequestOrigin_Requested::total            0                       # Table walker requests started/completed, data/inst
system.cpu.dtb.walker.walkRequestOrigin_Completed::Data            0                       # Table walker requests started/completed, data/inst
system.cpu.dtb.walker.walkRequestOrigin_Completed::Inst            0                       # Table walker requests started/completed, data/inst
system.cpu.dtb.walker.walkRequestOrigin_Completed::total            0                       # Table walker requests started/completed, data/inst
system.cpu.dtb.walker.walkRequestOrigin::total            0                       # Table walker requests started/completed, data/inst
system.cpu.dtb.inst_hits                            0                       # ITB inst hits
system.cpu.dtb.inst_misses                          0                       # ITB inst misses
system.cpu.dtb.read_hits                            0                       # DTB read hits
system.cpu.dtb.read_misses                          0                       # DTB read misses
system.cpu.dtb.write_hits                           0                       # DTB write hits
system.cpu.dtb.write_misses                         0                       # DTB write misses
system.cpu.dtb.flush_tlb                            0                       # Number of times complete TLB was flushed
system.cpu.dtb.flush_tlb_mva                        0                       # Number of times TLB was flushed by MVA
system.cpu.dtb.flush_tlb_mva_asid                   0                       # Number of times TLB was flushed by MVA & ASID
system.cpu.dtb.flush_tlb_asid                       0                       # Number of times TLB was flushed by ASID
system.cpu.dtb.flush_entries                        0                       # Number of entries that have been flushed from TLB
system.cpu.dtb.align_faults                         0                       # Number of TLB faults due to alignment restrictions
system.cpu.dtb.prefetch_faults                      0                       # Number of TLB faults due to prefetch
system.cpu.dtb.domain_faults                        0                       # Number of TLB faults due to domain restrictions
system.cpu.dtb.perms_faults                         0                       # Number of TLB faults due to permissions restrictions
system.cpu.dtb.read_accesses                        0                       # DTB read accesses
system.cpu.dtb.write_accesses                       0                       # DTB write accesses
system.cpu.dtb.inst_accesses                        0                       # ITB inst accesses
system.cpu.dtb.hits                                 0                       # DTB hits
system.cpu.dtb.misses                               0                       # DTB misses
system.cpu.dtb.accesses                             0                       # DTB accesses
system.cpu.istage2_mmu.stage2_tlb.walker.pwrStateResidencyTicks::UNDEFINED 979259307500                       # Cumulative time (in ticks) in various power states
system.cpu.istage2_mmu.stage2_tlb.walker.walks            0                       # Table walker walks requested
system.cpu.istage2_mmu.stage2_tlb.walker.walkRequestOrigin_Requested::Data            0                       # Table walker requests started/completed, data/inst
system.cpu.istage2_mmu.stage2_tlb.walker.walkRequestOrigin_Requested::Inst            0                       # Table walker requests started/completed, data/inst
system.cpu.istage2_mmu.stage2_tlb.walker.walkRequestOrigin_Requested::total            0                       # Table walker requests started/completed, data/inst
system.cpu.istage2_mmu.stage2_tlb.walker.walkRequestOrigin_Completed::Data            0                       # Table walker requests started/completed, data/inst
system.cpu.istage2_mmu.stage2_tlb.walker.walkRequestOrigin_Completed::Inst            0                       # Table walker requests started/completed, data/inst
system.cpu.istage2_mmu.stage2_tlb.walker.walkRequestOrigin_Completed::total            0                       # Table walker requests started/completed, data/inst
system.cpu.istage2_mmu.stage2_tlb.walker.walkRequestOrigin::total            0                       # Table walker requests started/completed, data/inst
system.cpu.istage2_mmu.stage2_tlb.inst_hits            0                       # ITB inst hits
system.cpu.istage2_mmu.stage2_tlb.inst_misses            0                       # ITB inst misses
system.cpu.istage2_mmu.stage2_tlb.read_hits            0                       # DTB read hits
system.cpu.istage2_mmu.stage2_tlb.read_misses            0                       # DTB read misses
system.cpu.istage2_mmu.stage2_tlb.write_hits            0                       # DTB write hits
system.cpu.istage2_mmu.stage2_tlb.write_misses            0                       # DTB write misses
system.cpu.istage2_mmu.stage2_tlb.flush_tlb            0                       # Number of times complete TLB was flushed
system.cpu.istage2_mmu.stage2_tlb.flush_tlb_mva            0                       # Number of times TLB was flushed by MVA
system.cpu.istage2_mmu.stage2_tlb.flush_tlb_mva_asid            0                       # Number of times TLB was flushed by MVA & ASID
system.cpu.istage2_mmu.stage2_tlb.flush_tlb_asid            0                       # Number of times TLB was flushed by ASID
system.cpu.istage2_mmu.stage2_tlb.flush_entries            0                       # Number of entries that have been flushed from TLB
system.cpu.istage2_mmu.stage2_tlb.align_faults            0                       # Number of TLB faults due to alignment restrictions
system.cpu.istage2_mmu.stage2_tlb.prefetch_faults            0                       # Number of TLB faults due to prefetch
system.cpu.istage2_mmu.stage2_tlb.domain_faults            0                       # Number of TLB faults due to domain restrictions
system.cpu.istage2_mmu.stage2_tlb.perms_faults            0                       # Number of TLB faults due to permissions restrictions
system.cpu.istage2_mmu.stage2_tlb.read_accesses            0                       # DTB read accesses
system.cpu.istage2_mmu.stage2_tlb.write_accesses            0                       # DTB write accesses
system.cpu.istage2_mmu.stage2_tlb.inst_accesses            0                       # ITB inst accesses
system.cpu.istage2_mmu.stage2_tlb.hits              0                       # DTB hits
system.cpu.istage2_mmu.stage2_tlb.misses            0                       # DTB misses
system.cpu.istage2_mmu.stage2_tlb.accesses            0                       # DTB accesses
system.cpu.itb.walker.pwrStateResidencyTicks::UNDEFINED 979259307500                       # Cumulative time (in ticks) in various power states
system.cpu.itb.walker.walks                         0                       # Table walker walks requested
system.cpu.itb.walker.walkRequestOrigin_Requested::Data            0                       # Table walker requests started/completed, data/inst
system.cpu.itb.walker.walkRequestOrigin_Requested::Inst            0                       # Table walker requests started/completed, data/inst
system.cpu.itb.walker.walkRequestOrigin_Requested::total            0                       # Table walker requests started/completed, data/inst
system.cpu.itb.walker.walkRequestOrigin_Completed::Data            0                       # Table walker requests started/completed, data/inst
system.cpu.itb.walker.walkRequestOrigin_Completed::Inst            0                       # Table walker requests started/completed, data/inst
system.cpu.itb.walker.walkRequestOrigin_Completed::total            0                       # Table walker requests started/completed, data/inst
system.cpu.itb.walker.walkRequestOrigin::total            0                       # Table walker requests started/completed, data/inst
system.cpu.itb.inst_hits                            0                       # ITB inst hits
system.cpu.itb.inst_misses                          0                       # ITB inst misses
system.cpu.itb.read_hits                            0                       # DTB read hits
system.cpu.itb.read_misses                          0                       # DTB read misses
system.cpu.itb.write_hits                           0                       # DTB write hits
system.cpu.itb.write_misses                         0                       # DTB write misses
system.cpu.itb.flush_tlb                            0                       # Number of times complete TLB was flushed
system.cpu.itb.flush_tlb_mva                        0                       # Number of times TLB was flushed by MVA
system.cpu.itb.flush_tlb_mva_asid                   0                       # Number of times TLB was flushed by MVA & ASID
system.cpu.itb.flush_tlb_asid                       0                       # Number of times TLB was flushed by ASID
system.cpu.itb.flush_entries                        0                       # Number of entries that have been flushed from TLB
system.cpu.itb.align_faults                         0                       # Number of TLB faults due to alignment restrictions
system.cpu.itb.prefetch_faults                      0                       # Number of TLB faults due to prefetch
system.cpu.itb.domain_faults                        0                       # Number of TLB faults due to domain restrictions
system.cpu.itb.perms_faults                         0                       # Number of TLB faults due to permissions restrictions
system.cpu.itb.read_accesses                        0                       # DTB read accesses
system.cpu.itb.write_accesses                       0                       # DTB write accesses
system.cpu.itb.inst_accesses                        0                       # ITB inst accesses
system.cpu.itb.hits                                 0                       # DTB hits
system.cpu.itb.misses                               0                       # DTB misses
system.cpu.itb.accesses                             0                       # DTB accesses
system.cpu.workload.numSyscalls                     7                       # Number of system calls
system.cpu.pwrStateResidencyTicks::ON    979259307500                       # Cumulative time (in ticks) in various power states
system.cpu.numCycles                                0                       # number of cpu cycles simulated
system.cpu.numWorkItemsStarted                      0                       # number of work items this cpu started
system.cpu.numWorkItemsCompleted                    0                       # number of work items this cpu completed
system.cpu.committedInsts                           0                       # Number of instructions committed
system.cpu.committedOps                             0                       # Number of ops (including micro ops) committed
system.cpu.num_int_alu_accesses                     0                       # Number of integer alu accesses
system.cpu.num_fp_alu_accesses                      0                       # Number of float alu accesses
system.cpu.num_vec_alu_accesses                     0                       # Number of vector alu accesses
system.cpu.num_func_calls                           0                       # number of times a function call or return occured
system.cpu.num_conditional_control_insts            0                       # number of instructions that are conditional controls
system.cpu.num_int_insts                            0                       # number of integer instructions
system.cpu.num_fp_insts                             0                       # number of float instructions
system.cpu.num_vec_insts                            0                       # number of vector instructions
system.cpu.num_int_register_reads                   0                       # number of times the integer registers were read
system.cpu.num_int_register_writes                  0                       # number of times the integer registers were written
system.cpu.num_fp_register_reads                    0                       # number of times the floating registers were read
system.cpu.num_fp_register_writes                   0                       # number of times the floating registers were written
system.cpu.num_vec_register_reads                   0                       # number of times the vector registers were read
system.cpu.num_vec_register_writes                  0                       # number of times the vector registers were written
system.cpu.num_mem_refs                             0                       # number of memory refs
system.cpu.num_load_insts                           0                       # Number of load instructions
system.cpu.num_store_insts                          0                       # Number of store instructions
system.cpu.num_idle_cycles                          0                       # Number of idle cycles
system.cpu.num_busy_cycles                          0                       # Number of busy cycles
system.cpu.not_idle_fraction                        1                       # Percentage of non-idle cycles
system.cpu.idle_fraction                            0                       # Percentage of idle cycles
system.cpu.op_class::No_OpClass                     0                       # Class of executed instruction
system.cpu.op_class::IntAlu                         0                       # Class of executed instruction
system.cpu.op_class::IntMult                        0                       # Class of executed instruction
system.cpu.op_class::IntDiv                         0                       # Class of executed instruction
system.cpu.op_class::FloatAdd                       0                       # Class of executed instruction
system.cpu.op_class::FloatCmp                       0                       # Class of executed instruction
system.cpu.op_class::FloatCvt                       0                       # Class of executed instruction
system.cpu.op_class::FloatMult                      0                       # Class of executed instruction
system.cpu.op_class::FloatMultAcc                   0                       # Class of executed instruction
system.cpu.op_class::FloatDiv                       0                       # Class of executed instruction
system.cpu.op_class::FloatMisc                      0                       # Class of executed instruction
system.cpu.op_class::FloatSqrt                      0                       # Class of executed instruction
system.cpu.op_class::SimdAdd                        0                       # Class of executed instruction
system.cpu.op_class::SimdAddAcc                     0                       # Class of executed instruction
system.cpu.op_class::SimdAlu                        0                       # Class of executed instruction
system.cpu.op_class::SimdCmp                        0                       # Class of executed instruction
system.cpu.op_class::SimdCvt                        0                       # Class of executed instruction
system.cpu.op_class::SimdMisc                       0                       # Class of executed instruction
system.cpu.op_class::SimdMult                       0                       # Class of executed instruction
system.cpu.op_class::SimdMultAcc                    0                       # Class of executed instruction
system.cpu.op_class::SimdShift                      0                       # Class of executed instruction
system.cpu.op_class::SimdShiftAcc                   0                       # Class of executed instruction
system.cpu.op_class::SimdSqrt                       0                       # Class of executed instruction
system.cpu.op_class::SimdFloatAdd                   0                       # Class of executed instruction
system.cpu.op_class::SimdFloatAlu                   0                       # Class of executed instruction
system.cpu.op_class::SimdFloatCmp                   0                       # Class of executed instruction
system.cpu.op_class::SimdFloatCvt                   0                       # Class of executed instruction
system.cpu.op_class::SimdFloatDiv                   0                       # Class of executed instruction
system.cpu.op_class::SimdFloatMisc                  0                       # Class of executed instruction
system.cpu.op_class::SimdFloatMult                  0                       # Class of executed instruction
system.cpu.op_class::SimdFloatMultAcc               0                       # Class of executed instruction
system.cpu.op_class::SimdFloatSqrt                  0                       # Class of executed instruction
system.cpu.op_class::MemRead                        0                       # Class of executed instruction
system.cpu.op_class::MemWrite                       0                       # Class of executed instruction
system.cpu.op_class::FloatMemRead                   0                       # Class of executed instruction
system.cpu.op_class::FloatMemWrite                  0                       # Class of executed instruction
system.cpu.op_class::IprAccess                      0                       # Class of executed instruction
system.cpu.op_class::InstPrefetch                   0                       # Class of executed instruction
system.cpu.op_class::total                          0                       # Class of executed instruction
system.cpu.dcache.tags.pwrStateResidencyTicks::UNDEFINED 979259307500                       # Cumulative time (in ticks) in various power states
system.cpu.dcache.tags.replacements           2114201                       # number of replacements
system.cpu.dcache.tags.tagsinuse                 1024                       # Cycle average of tags in use
system.cpu.dcache.tags.total_refs           495732462                       # Total number of references to valid blocks.
system.cpu.dcache.tags.sampled_refs           2115225                       # Sample count of references to valid blocks.
system.cpu.dcache.tags.avg_refs            234.363939                       # Average number of references to valid blocks.
system.cpu.dcache.tags.warmup_cycle                 0                       # Cycle when the warmup percentage was hit.
system.cpu.dcache.tags.occ_blocks::cpu.data     0.181753                       # Average occupied blocks per requestor
system.cpu.dcache.tags.occ_blocks::switch_cpus.data  1023.818247                       # Average occupied blocks per requestor
system.cpu.dcache.tags.occ_percent::cpu.data     0.000177                       # Average percentage of cache occupancy
system.cpu.dcache.tags.occ_percent::switch_cpus.data     0.999823                       # Average percentage of cache occupancy
system.cpu.dcache.tags.occ_percent::total            1                       # Average percentage of cache occupancy
system.cpu.dcache.tags.occ_task_id_blocks::1024         1024                       # Occupied blocks per task id
system.cpu.dcache.tags.age_task_id_blocks_1024::0            9                       # Occupied blocks per task id
system.cpu.dcache.tags.age_task_id_blocks_1024::1           37                       # Occupied blocks per task id
system.cpu.dcache.tags.age_task_id_blocks_1024::2          171                       # Occupied blocks per task id
system.cpu.dcache.tags.age_task_id_blocks_1024::3          617                       # Occupied blocks per task id
system.cpu.dcache.tags.age_task_id_blocks_1024::4          190                       # Occupied blocks per task id
system.cpu.dcache.tags.occ_task_id_percent::1024            1                       # Percentage of cache occupancy per task id
system.cpu.dcache.tags.tag_accesses        1000658885                       # Number of tag accesses
system.cpu.dcache.tags.data_accesses       1000658885                       # Number of data accesses
system.cpu.dcache.pwrStateResidencyTicks::UNDEFINED 979259307500                       # Cumulative time (in ticks) in various power states
system.cpu.dcache.ReadReq_hits::switch_cpus.data    361491303                       # number of ReadReq hits
system.cpu.dcache.ReadReq_hits::total       361491303                       # number of ReadReq hits
system.cpu.dcache.WriteReq_hits::switch_cpus.data    131615312                       # number of WriteReq hits
system.cpu.dcache.WriteReq_hits::total      131615312                       # number of WriteReq hits
system.cpu.dcache.SoftPFReq_hits::switch_cpus.data        12665                       # number of SoftPFReq hits
system.cpu.dcache.SoftPFReq_hits::total         12665                       # number of SoftPFReq hits
system.cpu.dcache.LoadLockedReq_hits::switch_cpus.data      1054940                       # number of LoadLockedReq hits
system.cpu.dcache.LoadLockedReq_hits::total      1054940                       # number of LoadLockedReq hits
system.cpu.dcache.StoreCondReq_hits::switch_cpus.data      1055614                       # number of StoreCondReq hits
system.cpu.dcache.StoreCondReq_hits::total      1055614                       # number of StoreCondReq hits
system.cpu.dcache.demand_hits::switch_cpus.data    493106615                       # number of demand (read+write) hits
system.cpu.dcache.demand_hits::total        493106615                       # number of demand (read+write) hits
system.cpu.dcache.overall_hits::switch_cpus.data    493119280                       # number of overall hits
system.cpu.dcache.overall_hits::total       493119280                       # number of overall hits
system.cpu.dcache.ReadReq_misses::switch_cpus.data      2251645                       # number of ReadReq misses
system.cpu.dcache.ReadReq_misses::total       2251645                       # number of ReadReq misses
system.cpu.dcache.WriteReq_misses::switch_cpus.data      1789955                       # number of WriteReq misses
system.cpu.dcache.WriteReq_misses::total      1789955                       # number of WriteReq misses
system.cpu.dcache.SoftPFReq_misses::switch_cpus.data          234                       # number of SoftPFReq misses
system.cpu.dcache.SoftPFReq_misses::total          234                       # number of SoftPFReq misses
system.cpu.dcache.LoadLockedReq_misses::switch_cpus.data          674                       # number of LoadLockedReq misses
system.cpu.dcache.LoadLockedReq_misses::total          674                       # number of LoadLockedReq misses
system.cpu.dcache.demand_misses::switch_cpus.data      4041600                       # number of demand (read+write) misses
system.cpu.dcache.demand_misses::total        4041600                       # number of demand (read+write) misses
system.cpu.dcache.overall_misses::switch_cpus.data      4041834                       # number of overall misses
system.cpu.dcache.overall_misses::total       4041834                       # number of overall misses
system.cpu.dcache.ReadReq_miss_latency::switch_cpus.data  19973613000                       # number of ReadReq miss cycles
system.cpu.dcache.ReadReq_miss_latency::total  19973613000                       # number of ReadReq miss cycles
system.cpu.dcache.WriteReq_miss_latency::switch_cpus.data  14433907858                       # number of WriteReq miss cycles
system.cpu.dcache.WriteReq_miss_latency::total  14433907858                       # number of WriteReq miss cycles
system.cpu.dcache.LoadLockedReq_miss_latency::switch_cpus.data      6066000                       # number of LoadLockedReq miss cycles
system.cpu.dcache.LoadLockedReq_miss_latency::total      6066000                       # number of LoadLockedReq miss cycles
system.cpu.dcache.demand_miss_latency::switch_cpus.data  34407520858                       # number of demand (read+write) miss cycles
system.cpu.dcache.demand_miss_latency::total  34407520858                       # number of demand (read+write) miss cycles
system.cpu.dcache.overall_miss_latency::switch_cpus.data  34407520858                       # number of overall miss cycles
system.cpu.dcache.overall_miss_latency::total  34407520858                       # number of overall miss cycles
system.cpu.dcache.ReadReq_accesses::switch_cpus.data    363742948                       # number of ReadReq accesses(hits+misses)
system.cpu.dcache.ReadReq_accesses::total    363742948                       # number of ReadReq accesses(hits+misses)
system.cpu.dcache.WriteReq_accesses::switch_cpus.data    133405267                       # number of WriteReq accesses(hits+misses)
system.cpu.dcache.WriteReq_accesses::total    133405267                       # number of WriteReq accesses(hits+misses)
system.cpu.dcache.SoftPFReq_accesses::switch_cpus.data        12899                       # number of SoftPFReq accesses(hits+misses)
system.cpu.dcache.SoftPFReq_accesses::total        12899                       # number of SoftPFReq accesses(hits+misses)
system.cpu.dcache.LoadLockedReq_accesses::switch_cpus.data      1055614                       # number of LoadLockedReq accesses(hits+misses)
system.cpu.dcache.LoadLockedReq_accesses::total      1055614                       # number of LoadLockedReq accesses(hits+misses)
system.cpu.dcache.StoreCondReq_accesses::switch_cpus.data      1055614                       # number of StoreCondReq accesses(hits+misses)
system.cpu.dcache.StoreCondReq_accesses::total      1055614                       # number of StoreCondReq accesses(hits+misses)
system.cpu.dcache.demand_accesses::switch_cpus.data    497148215                       # number of demand (read+write) accesses
system.cpu.dcache.demand_accesses::total    497148215                       # number of demand (read+write) accesses
system.cpu.dcache.overall_accesses::switch_cpus.data    497161114                       # number of overall (read+write) accesses
system.cpu.dcache.overall_accesses::total    497161114                       # number of overall (read+write) accesses
system.cpu.dcache.ReadReq_miss_rate::switch_cpus.data     0.006190                       # miss rate for ReadReq accesses
system.cpu.dcache.ReadReq_miss_rate::total     0.006190                       # miss rate for ReadReq accesses
system.cpu.dcache.WriteReq_miss_rate::switch_cpus.data     0.013417                       # miss rate for WriteReq accesses
system.cpu.dcache.WriteReq_miss_rate::total     0.013417                       # miss rate for WriteReq accesses
system.cpu.dcache.SoftPFReq_miss_rate::switch_cpus.data     0.018141                       # miss rate for SoftPFReq accesses
system.cpu.dcache.SoftPFReq_miss_rate::total     0.018141                       # miss rate for SoftPFReq accesses
system.cpu.dcache.LoadLockedReq_miss_rate::switch_cpus.data     0.000638                       # miss rate for LoadLockedReq accesses
system.cpu.dcache.LoadLockedReq_miss_rate::total     0.000638                       # miss rate for LoadLockedReq accesses
system.cpu.dcache.demand_miss_rate::switch_cpus.data     0.008130                       # miss rate for demand accesses
system.cpu.dcache.demand_miss_rate::total     0.008130                       # miss rate for demand accesses
system.cpu.dcache.overall_miss_rate::switch_cpus.data     0.008130                       # miss rate for overall accesses
system.cpu.dcache.overall_miss_rate::total     0.008130                       # miss rate for overall accesses
system.cpu.dcache.ReadReq_avg_miss_latency::switch_cpus.data  8870.675884                       # average ReadReq miss latency
system.cpu.dcache.ReadReq_avg_miss_latency::total  8870.675884                       # average ReadReq miss latency
system.cpu.dcache.WriteReq_avg_miss_latency::switch_cpus.data  8063.838397                       # average WriteReq miss latency
system.cpu.dcache.WriteReq_avg_miss_latency::total  8063.838397                       # average WriteReq miss latency
system.cpu.dcache.LoadLockedReq_avg_miss_latency::switch_cpus.data         9000                       # average LoadLockedReq miss latency
system.cpu.dcache.LoadLockedReq_avg_miss_latency::total         9000                       # average LoadLockedReq miss latency
system.cpu.dcache.demand_avg_miss_latency::switch_cpus.data  8513.341463                       # average overall miss latency
system.cpu.dcache.demand_avg_miss_latency::total  8513.341463                       # average overall miss latency
system.cpu.dcache.overall_avg_miss_latency::switch_cpus.data  8512.848588                       # average overall miss latency
system.cpu.dcache.overall_avg_miss_latency::total  8512.848588                       # average overall miss latency
system.cpu.dcache.blocked_cycles::no_mshrs        22243                       # number of cycles access was blocked
system.cpu.dcache.blocked_cycles::no_targets        79705                       # number of cycles access was blocked
system.cpu.dcache.blocked::no_mshrs              7063                       # number of cycles access was blocked
system.cpu.dcache.blocked::no_targets            5396                       # number of cycles access was blocked
system.cpu.dcache.avg_blocked_cycles::no_mshrs     3.149228                       # average number of cycles each access was blocked
system.cpu.dcache.avg_blocked_cycles::no_targets    14.771127                       # average number of cycles each access was blocked
system.cpu.dcache.writebacks::writebacks      2114201                       # number of writebacks
system.cpu.dcache.writebacks::total           2114201                       # number of writebacks
system.cpu.dcache.ReadReq_mshr_hits::switch_cpus.data      1265219                       # number of ReadReq MSHR hits
system.cpu.dcache.ReadReq_mshr_hits::total      1265219                       # number of ReadReq MSHR hits
system.cpu.dcache.WriteReq_mshr_hits::switch_cpus.data       662960                       # number of WriteReq MSHR hits
system.cpu.dcache.WriteReq_mshr_hits::total       662960                       # number of WriteReq MSHR hits
system.cpu.dcache.demand_mshr_hits::switch_cpus.data      1928179                       # number of demand (read+write) MSHR hits
system.cpu.dcache.demand_mshr_hits::total      1928179                       # number of demand (read+write) MSHR hits
system.cpu.dcache.overall_mshr_hits::switch_cpus.data      1928179                       # number of overall MSHR hits
system.cpu.dcache.overall_mshr_hits::total      1928179                       # number of overall MSHR hits
system.cpu.dcache.ReadReq_mshr_misses::switch_cpus.data       986426                       # number of ReadReq MSHR misses
system.cpu.dcache.ReadReq_mshr_misses::total       986426                       # number of ReadReq MSHR misses
system.cpu.dcache.WriteReq_mshr_misses::switch_cpus.data      1126995                       # number of WriteReq MSHR misses
system.cpu.dcache.WriteReq_mshr_misses::total      1126995                       # number of WriteReq MSHR misses
system.cpu.dcache.SoftPFReq_mshr_misses::switch_cpus.data          107                       # number of SoftPFReq MSHR misses
system.cpu.dcache.SoftPFReq_mshr_misses::total          107                       # number of SoftPFReq MSHR misses
system.cpu.dcache.LoadLockedReq_mshr_misses::switch_cpus.data          674                       # number of LoadLockedReq MSHR misses
system.cpu.dcache.LoadLockedReq_mshr_misses::total          674                       # number of LoadLockedReq MSHR misses
system.cpu.dcache.demand_mshr_misses::switch_cpus.data      2113421                       # number of demand (read+write) MSHR misses
system.cpu.dcache.demand_mshr_misses::total      2113421                       # number of demand (read+write) MSHR misses
system.cpu.dcache.overall_mshr_misses::switch_cpus.data      2113528                       # number of overall MSHR misses
system.cpu.dcache.overall_mshr_misses::total      2113528                       # number of overall MSHR misses
system.cpu.dcache.ReadReq_mshr_miss_latency::switch_cpus.data  11288713500                       # number of ReadReq MSHR miss cycles
system.cpu.dcache.ReadReq_mshr_miss_latency::total  11288713500                       # number of ReadReq MSHR miss cycles
system.cpu.dcache.WriteReq_mshr_miss_latency::switch_cpus.data   9249772476                       # number of WriteReq MSHR miss cycles
system.cpu.dcache.WriteReq_mshr_miss_latency::total   9249772476                       # number of WriteReq MSHR miss cycles
system.cpu.dcache.SoftPFReq_mshr_miss_latency::switch_cpus.data      1762000                       # number of SoftPFReq MSHR miss cycles
system.cpu.dcache.SoftPFReq_mshr_miss_latency::total      1762000                       # number of SoftPFReq MSHR miss cycles
system.cpu.dcache.LoadLockedReq_mshr_miss_latency::switch_cpus.data      5392000                       # number of LoadLockedReq MSHR miss cycles
system.cpu.dcache.LoadLockedReq_mshr_miss_latency::total      5392000                       # number of LoadLockedReq MSHR miss cycles
system.cpu.dcache.demand_mshr_miss_latency::switch_cpus.data  20538485976                       # number of demand (read+write) MSHR miss cycles
system.cpu.dcache.demand_mshr_miss_latency::total  20538485976                       # number of demand (read+write) MSHR miss cycles
system.cpu.dcache.overall_mshr_miss_latency::switch_cpus.data  20540247976                       # number of overall MSHR miss cycles
system.cpu.dcache.overall_mshr_miss_latency::total  20540247976                       # number of overall MSHR miss cycles
system.cpu.dcache.ReadReq_mshr_miss_rate::switch_cpus.data     0.002712                       # mshr miss rate for ReadReq accesses
system.cpu.dcache.ReadReq_mshr_miss_rate::total     0.002712                       # mshr miss rate for ReadReq accesses
system.cpu.dcache.WriteReq_mshr_miss_rate::switch_cpus.data     0.008448                       # mshr miss rate for WriteReq accesses
system.cpu.dcache.WriteReq_mshr_miss_rate::total     0.008448                       # mshr miss rate for WriteReq accesses
system.cpu.dcache.SoftPFReq_mshr_miss_rate::switch_cpus.data     0.008295                       # mshr miss rate for SoftPFReq accesses
system.cpu.dcache.SoftPFReq_mshr_miss_rate::total     0.008295                       # mshr miss rate for SoftPFReq accesses
system.cpu.dcache.LoadLockedReq_mshr_miss_rate::switch_cpus.data     0.000638                       # mshr miss rate for LoadLockedReq accesses
system.cpu.dcache.LoadLockedReq_mshr_miss_rate::total     0.000638                       # mshr miss rate for LoadLockedReq accesses
system.cpu.dcache.demand_mshr_miss_rate::switch_cpus.data     0.004251                       # mshr miss rate for demand accesses
system.cpu.dcache.demand_mshr_miss_rate::total     0.004251                       # mshr miss rate for demand accesses
system.cpu.dcache.overall_mshr_miss_rate::switch_cpus.data     0.004251                       # mshr miss rate for overall accesses
system.cpu.dcache.overall_mshr_miss_rate::total     0.004251                       # mshr miss rate for overall accesses
system.cpu.dcache.ReadReq_avg_mshr_miss_latency::switch_cpus.data 11444.055104                       # average ReadReq mshr miss latency
system.cpu.dcache.ReadReq_avg_mshr_miss_latency::total 11444.055104                       # average ReadReq mshr miss latency
system.cpu.dcache.WriteReq_avg_mshr_miss_latency::switch_cpus.data  8207.465407                       # average WriteReq mshr miss latency
system.cpu.dcache.WriteReq_avg_mshr_miss_latency::total  8207.465407                       # average WriteReq mshr miss latency
system.cpu.dcache.SoftPFReq_avg_mshr_miss_latency::switch_cpus.data 16467.289720                       # average SoftPFReq mshr miss latency
system.cpu.dcache.SoftPFReq_avg_mshr_miss_latency::total 16467.289720                       # average SoftPFReq mshr miss latency
system.cpu.dcache.LoadLockedReq_avg_mshr_miss_latency::switch_cpus.data         8000                       # average LoadLockedReq mshr miss latency
system.cpu.dcache.LoadLockedReq_avg_mshr_miss_latency::total         8000                       # average LoadLockedReq mshr miss latency
system.cpu.dcache.demand_avg_mshr_miss_latency::switch_cpus.data  9718.123354                       # average overall mshr miss latency
system.cpu.dcache.demand_avg_mshr_miss_latency::total  9718.123354                       # average overall mshr miss latency
system.cpu.dcache.overall_avg_mshr_miss_latency::switch_cpus.data  9718.465039                       # average overall mshr miss latency
system.cpu.dcache.overall_avg_mshr_miss_latency::total  9718.465039                       # average overall mshr miss latency
system.cpu.dtb_walker_cache.tags.pwrStateResidencyTicks::UNDEFINED 979259307500                       # Cumulative time (in ticks) in various power states
system.cpu.dtb_walker_cache.tags.replacements            0                       # number of replacements
system.cpu.dtb_walker_cache.tags.tagsinuse            0                       # Cycle average of tags in use
system.cpu.dtb_walker_cache.tags.total_refs            0                       # Total number of references to valid blocks.
system.cpu.dtb_walker_cache.tags.sampled_refs            0                       # Sample count of references to valid blocks.
system.cpu.dtb_walker_cache.tags.avg_refs          nan                       # Average number of references to valid blocks.
system.cpu.dtb_walker_cache.tags.warmup_cycle            0                       # Cycle when the warmup percentage was hit.
system.cpu.dtb_walker_cache.tags.tag_accesses            0                       # Number of tag accesses
system.cpu.dtb_walker_cache.tags.data_accesses            0                       # Number of data accesses
system.cpu.dtb_walker_cache.pwrStateResidencyTicks::UNDEFINED 979259307500                       # Cumulative time (in ticks) in various power states
system.cpu.dtb_walker_cache.blocked_cycles::no_mshrs            0                       # number of cycles access was blocked
system.cpu.dtb_walker_cache.blocked_cycles::no_targets            0                       # number of cycles access was blocked
system.cpu.dtb_walker_cache.blocked::no_mshrs            0                       # number of cycles access was blocked
system.cpu.dtb_walker_cache.blocked::no_targets            0                       # number of cycles access was blocked
system.cpu.dtb_walker_cache.avg_blocked_cycles::no_mshrs          nan                       # average number of cycles each access was blocked
system.cpu.dtb_walker_cache.avg_blocked_cycles::no_targets          nan                       # average number of cycles each access was blocked
system.cpu.icache.tags.pwrStateResidencyTicks::UNDEFINED 979259307500                       # Cumulative time (in ticks) in various power states
system.cpu.icache.tags.replacements            798999                       # number of replacements
system.cpu.icache.tags.tagsinuse                  512                       # Cycle average of tags in use
system.cpu.icache.tags.total_refs           368341231                       # Total number of references to valid blocks.
system.cpu.icache.tags.sampled_refs            799511                       # Sample count of references to valid blocks.
[...]
system.switch_cpus.iew.lsq.thread0.cacheBlocked        31915                       # Number of times an access to memory failed due to the cache being blocked
system.switch_cpus.iew.iewIdleCycles                0                       # Number of cycles IEW is idle
system.switch_cpus.iew.iewSquashCycles        2155937                       # Number of cycles IEW is squashing
system.switch_cpus.iew.iewBlockCycles         2793673                       # Number of cycles IEW is blocking
system.switch_cpus.iew.iewUnblockCycles       2468440                       # Number of cycles IEW is unblocking
system.switch_cpus.iew.iewDispatchedInsts   1090769460                       # Number of instructions dispatched to IQ
system.switch_cpus.iew.iewDispSquashedInsts            0                       # Number of squashed instructions skipped by dispatch
system.switch_cpus.iew.iewDispLoadInsts     384530709                       # Number of dispatched load instructions
system.switch_cpus.iew.iewDispStoreInsts    137026004                       # Number of dispatched store instructions
system.switch_cpus.iew.iewDispNonSpecInsts      1126881                       # Number of dispatched non-speculative instructions
system.switch_cpus.iew.iewIQFullEvents          15589                       # Number of times the IQ has become full, causing a stall
system.switch_cpus.iew.iewLSQFullEvents       2446660                       # Number of times the LSQ has become full, causing a stall
system.switch_cpus.iew.memOrderViolationEvents        69359                       # Number of memory order violations
system.switch_cpus.iew.predictedTakenIncorrect      1420425                       # Number of branches that were predicted taken incorrectly
system.switch_cpus.iew.predictedNotTakenIncorrect       741671                       # Number of branches that were predicted not taken incorrectly
system.switch_cpus.iew.branchMispredicts      2162096                       # Number of branch mispredicts detected at execute
system.switch_cpus.iew.iewExecutedInsts    1069584020                       # Number of executed instructions
system.switch_cpus.iew.iewExecLoadInsts     377877564                       # Number of load instructions executed
system.switch_cpus.iew.iewExecSquashedInsts      4239082                       # Number of squashed instructions skipped in execute
system.switch_cpus.iew.exec_swp                     0                       # number of swp insts executed
system.switch_cpus.iew.exec_nop                  2524                       # number of nop insts executed
system.switch_cpus.iew.exec_refs            513150084                       # number of memory reference insts executed
system.switch_cpus.iew.exec_branches         79788190                       # Number of branches executed
system.switch_cpus.iew.exec_stores          135272520                       # Number of stores executed
system.switch_cpus.iew.exec_rate             1.682662                       # Inst execution rate
system.switch_cpus.iew.wb_sent             1068307011                       # cumulative count of insts sent to commit
system.switch_cpus.iew.wb_count            1067499550                       # cumulative count of insts written-back
system.switch_cpus.iew.wb_producers         667939021                       # num instructions producing a value
system.switch_cpus.iew.wb_consumers        1028765615                       # num instructions consuming a value
system.switch_cpus.iew.wb_rate               1.679382                       # insts written-back per cycle
system.switch_cpus.iew.wb_fanout             0.649263                       # average fanout of values written-back
system.switch_cpus.commit.commitSquashedInsts     29321602                       # The number of squashed insts skipped by commit
system.switch_cpus.commit.commitNonSpecStalls      3166849                       # The number of times commit has been forced to stall to communicate backwards
system.switch_cpus.commit.branchMispredicts      2091435                       # The number of times a branch was mispredicted
system.switch_cpus.commit.committed_per_cycle::samples    621155474                       # Number of insts commited each cycle
system.switch_cpus.commit.committed_per_cycle::mean     1.701491                       # Number of insts commited each cycle
system.switch_cpus.commit.committed_per_cycle::stdev     2.358557                       # Number of insts commited each cycle
system.switch_cpus.commit.committed_per_cycle::underflows            0      0.00%      0.00% # Number of insts commited each cycle
system.switch_cpus.commit.committed_per_cycle::0    276552135     44.52%     44.52% # Number of insts commited each cycle
system.switch_cpus.commit.committed_per_cycle::1    117438716     18.91%     63.43% # Number of insts commited each cycle
system.switch_cpus.commit.committed_per_cycle::2     83362350     13.42%     76.85% # Number of insts commited each cycle
system.switch_cpus.commit.committed_per_cycle::3     46971355      7.56%     84.41% # Number of insts commited each cycle
system.switch_cpus.commit.committed_per_cycle::4     18611126      3.00%     87.41% # Number of insts commited each cycle
system.switch_cpus.commit.committed_per_cycle::5     13729974      2.21%     89.62% # Number of insts commited each cycle
system.switch_cpus.commit.committed_per_cycle::6      9819206      1.58%     91.20% # Number of insts commited each cycle
system.switch_cpus.commit.committed_per_cycle::7      7561384      1.22%     92.42% # Number of insts commited each cycle
system.switch_cpus.commit.committed_per_cycle::8     47109228      7.58%    100.00% # Number of insts commited each cycle
system.switch_cpus.commit.committed_per_cycle::overflows            0      0.00%    100.00% # Number of insts commited each cycle
system.switch_cpus.commit.committed_per_cycle::min_value            0                       # Number of insts commited each cycle
system.switch_cpus.commit.committed_per_cycle::max_value            8                       # Number of insts commited each cycle
system.switch_cpus.commit.committed_per_cycle::total    621155474                       # Number of insts commited each cycle
system.switch_cpus.commit.committedInsts   1000001570                       # Number of instructions committed
system.switch_cpus.commit.committedOps     1056890603                       # Number of ops (including micro ops) committed
system.switch_cpus.commit.swp_count                 0                       # Number of s/w prefetches committed
system.switch_cpus.commit.refs              507666743                       # Number of memory references committed
system.switch_cpus.commit.loads             373020436                       # Number of loads committed
system.switch_cpus.commit.membars             2111228                       # Number of memory barriers committed
system.switch_cpus.commit.branches           78539885                       # Number of branches committed
system.switch_cpus.commit.vec_insts                 0                       # Number of committed Vector instructions.
system.switch_cpus.commit.fp_insts          277019138                       # Number of committed floating point instructions.
system.switch_cpus.commit.int_insts         876645111                       # Number of committed integer instructions.
system.switch_cpus.commit.function_calls      3369340                       # Number of function calls committed.
system.switch_cpus.commit.op_class_0::No_OpClass            0      0.00%      0.00% # Class of committed instruction
system.switch_cpus.commit.op_class_0::IntAlu    429456750     40.63%     40.63% # Class of committed instruction
system.switch_cpus.commit.op_class_0::IntMult      9272930      0.88%     41.51% # Class of committed instruction
system.switch_cpus.commit.op_class_0::IntDiv       157483      0.01%     41.53% # Class of committed instruction
system.switch_cpus.commit.op_class_0::FloatAdd            0      0.00%     41.53% # Class of committed instruction
system.switch_cpus.commit.op_class_0::FloatCmp            0      0.00%     41.53% # Class of committed instruction
system.switch_cpus.commit.op_class_0::FloatCvt            0      0.00%     41.53% # Class of committed instruction
system.switch_cpus.commit.op_class_0::FloatMult            0      0.00%     41.53% # Class of committed instruction
system.switch_cpus.commit.op_class_0::FloatMultAcc            0      0.00%     41.53% # Class of committed instruction
system.switch_cpus.commit.op_class_0::FloatDiv            0      0.00%     41.53% # Class of committed instruction
system.switch_cpus.commit.op_class_0::FloatMisc            0      0.00%     41.53% # Class of committed instruction
system.switch_cpus.commit.op_class_0::FloatSqrt            0      0.00%     41.53% # Class of committed instruction
system.switch_cpus.commit.op_class_0::SimdAdd            0      0.00%     41.53% # Class of committed instruction
system.switch_cpus.commit.op_class_0::SimdAddAcc            0      0.00%     41.53% # Class of committed instruction
system.switch_cpus.commit.op_class_0::SimdAlu            0      0.00%     41.53% # Class of committed instruction
system.switch_cpus.commit.op_class_0::SimdCmp            0      0.00%     41.53% # Class of committed instruction
system.switch_cpus.commit.op_class_0::SimdCvt            0      0.00%     41.53% # Class of committed instruction
system.switch_cpus.commit.op_class_0::SimdMisc            0      0.00%     41.53% # Class of committed instruction
system.switch_cpus.commit.op_class_0::SimdMult            0      0.00%     41.53% # Class of committed instruction
system.switch_cpus.commit.op_class_0::SimdMultAcc            0      0.00%     41.53% # Class of committed instruction
system.switch_cpus.commit.op_class_0::SimdShift            0      0.00%     41.53% # Class of committed instruction
system.switch_cpus.commit.op_class_0::SimdShiftAcc            0      0.00%     41.53% # Class of committed instruction
system.switch_cpus.commit.op_class_0::SimdSqrt            0      0.00%     41.53% # Class of committed instruction
system.switch_cpus.commit.op_class_0::SimdFloatAdd      5812158      0.55%     42.08% # Class of committed instruction
system.switch_cpus.commit.op_class_0::SimdFloatAlu            0      0.00%     42.08% # Class of committed instruction
system.switch_cpus.commit.op_class_0::SimdFloatCmp      3238820      0.31%     42.38% # Class of committed instruction
system.switch_cpus.commit.op_class_0::SimdFloatCvt      1721728      0.16%     42.55% # Class of committed instruction
system.switch_cpus.commit.op_class_0::SimdFloatDiv      1632692      0.15%     42.70% # Class of committed instruction
system.switch_cpus.commit.op_class_0::SimdFloatMisc     15288694      1.45%     44.15% # Class of committed instruction
system.switch_cpus.commit.op_class_0::SimdFloatMult     37403751      3.54%     47.69% # Class of committed instruction
system.switch_cpus.commit.op_class_0::SimdFloatMultAcc     44295586      4.19%     51.88% # Class of committed instruction
system.switch_cpus.commit.op_class_0::SimdFloatSqrt       943268      0.09%     51.97% # Class of committed instruction
system.switch_cpus.commit.op_class_0::MemRead    247438954     23.41%     75.38% # Class of committed instruction
system.switch_cpus.commit.op_class_0::MemWrite     90306528      8.54%     83.92% # Class of committed instruction
system.switch_cpus.commit.op_class_0::FloatMemRead    125581482     11.88%     95.80% # Class of committed instruction
system.switch_cpus.commit.op_class_0::FloatMemWrite     44339779      4.20%    100.00% # Class of committed instruction
system.switch_cpus.commit.op_class_0::IprAccess            0      0.00%    100.00% # Class of committed instruction
system.switch_cpus.commit.op_class_0::InstPrefetch            0      0.00%    100.00% # Class of committed instruction
system.switch_cpus.commit.op_class_0::total   1056890603                       # Class of committed instruction
system.switch_cpus.commit.bw_lim_events      47109228                       # number cycles where commit BW limit reached
system.switch_cpus.rob.rob_reads           1660258360                       # The number of ROB reads
system.switch_cpus.rob.rob_writes          2177214743                       # The number of ROB writes
system.switch_cpus.timesIdled                   39457                       # Number of times that the entire CPU went into an idle state and unscheduled itself
system.switch_cpus.idleCycles                 9710357                       # Total number of cycles that the CPU has spent unscheduled due to idling
system.switch_cpus.committedInsts          1000000002                       # Number of Instructions Simulated
system.switch_cpus.committedOps            1056889035                       # Number of Ops (including micro ops) Simulated
system.switch_cpus.cpi                       0.635650                       # CPI: Cycles Per Instruction
system.switch_cpus.cpi_total                 0.635650                       # CPI: Total CPI of All Threads
system.switch_cpus.ipc                       1.573193                       # IPC: Instructions Per Cycle
system.switch_cpus.ipc_total                 1.573193                       # IPC: Total IPC of All Threads
system.switch_cpus.int_regfile_reads       1180886213                       # number of integer regfile reads
system.switch_cpus.int_regfile_writes       563967686                       # number of integer regfile writes
system.switch_cpus.fp_regfile_reads         548998588                       # number of floating regfile reads
system.switch_cpus.fp_regfile_writes        443476569                       # number of floating regfile writes
system.switch_cpus.cc_regfile_reads        4339356366                       # number of cc regfile reads
system.switch_cpus.cc_regfile_writes        445651032                       # number of cc regfile writes
system.switch_cpus.misc_regfile_reads      2548587518                       # number of misc regfile reads
system.switch_cpus.misc_regfile_writes       99405273                       # number of misc regfile writes
system.tol2bus.snoop_filter.tot_requests      5826401                       # Total number of requests made to the snoop filter.
system.tol2bus.snoop_filter.hit_single_requests      2913203                       # Number of requests hitting in the snoop filter with a single holder of the requested data.
system.tol2bus.snoop_filter.hit_multi_requests        36614                       # Number of requests hitting in the snoop filter with multiple (>1) holders of the requested data.
system.tol2bus.snoop_filter.tot_snoops         578267                       # Total number of snoops made to the snoop filter.
system.tol2bus.snoop_filter.hit_single_snoops       578267                       # Number of snoops hitting in the snoop filter with a single holder of the requested data.
system.tol2bus.snoop_filter.hit_multi_snoops            0                       # Number of snoops hitting in the snoop filter with multiple (>1) holders of the requested data.
system.tol2bus.pwrStateResidencyTicks::UNDEFINED 979259307500                       # Cumulative time (in ticks) in various power states
system.tol2bus.trans_dist::ReadResp           1786179                       # Transaction distribution
system.tol2bus.trans_dist::WritebackDirty      2070662                       # Transaction distribution
system.tol2bus.trans_dist::WritebackClean       845061                       # Transaction distribution
system.tol2bus.trans_dist::CleanEvict             516                       # Transaction distribution
system.tol2bus.trans_dist::HardPFReq           580282                       # Transaction distribution
system.tol2bus.trans_dist::HardPFResp              18                       # Transaction distribution
system.tol2bus.trans_dist::UpgradeReq               1                       # Transaction distribution
system.tol2bus.trans_dist::UpgradeResp              1                       # Transaction distribution
system.tol2bus.trans_dist::ReadExReq          1127021                       # Transaction distribution
system.tol2bus.trans_dist::ReadExResp         1127021                       # Transaction distribution
system.tol2bus.trans_dist::ReadCleanReq        798999                       # Transaction distribution
system.tol2bus.trans_dist::ReadSharedReq       987180                       # Transaction distribution
system.tol2bus.pkt_count_system.cpu.icache.mem_side::system.l2.cpu_side      2396997                       # Packet count per connected master and slave (bytes)
system.tol2bus.pkt_count_system.cpu.dcache.mem_side::system.l2.cpu_side      6342623                       # Packet count per connected master and slave (bytes)
system.tol2bus.pkt_count::total               8739620                       # Packet count per connected master and slave (bytes)
system.tol2bus.pkt_size_system.cpu.icache.mem_side::system.l2.cpu_side    102271872                       # Cumulative packet size per connected master and slave (bytes)
system.tol2bus.pkt_size_system.cpu.dcache.mem_side::system.l2.cpu_side    270618880                       # Cumulative packet size per connected master and slave (bytes)
system.tol2bus.pkt_size::total              372890752                       # Cumulative packet size per connected master and slave (bytes)
system.tol2bus.snoops                          583339                       # Total snoops (count)
system.tol2bus.snoopTraffic                    162624                       # Total snoop traffic (bytes)
system.tol2bus.snoop_fanout::samples          3496522                       # Request fanout histogram
system.tol2bus.snoop_fanout::mean            0.175856                       # Request fanout histogram
system.tol2bus.snoop_fanout::stdev           0.380697                       # Request fanout histogram
system.tol2bus.snoop_fanout::underflows             0      0.00%      0.00% # Request fanout histogram
system.tol2bus.snoop_fanout::0                2881639     82.41%     82.41% # Request fanout histogram
system.tol2bus.snoop_fanout::1                 614883     17.59%    100.00% # Request fanout histogram
system.tol2bus.snoop_fanout::2                      0      0.00%    100.00% # Request fanout histogram
system.tol2bus.snoop_fanout::3                      0      0.00%    100.00% # Request fanout histogram
system.tol2bus.snoop_fanout::4                      0      0.00%    100.00% # Request fanout histogram
system.tol2bus.snoop_fanout::overflows              0      0.00%    100.00% # Request fanout histogram
system.tol2bus.snoop_fanout::min_value              0                       # Request fanout histogram
system.tol2bus.snoop_fanout::max_value              1                       # Request fanout histogram
system.tol2bus.snoop_fanout::total            3496522                       # Request fanout histogram
system.tol2bus.reqLayer0.occupancy         5826400521                       # Layer occupancy (ticks)
system.tol2bus.reqLayer0.utilization              1.8                       # Layer utilization (%)
system.tol2bus.snoopLayer0.occupancy            27045                       # Layer occupancy (ticks)
system.tol2bus.snoopLayer0.utilization            0.0                       # Layer utilization (%)
system.tol2bus.respLayer0.occupancy        1198796403                       # Layer occupancy (ticks)
system.tol2bus.respLayer0.utilization             0.4                       # Layer utilization (%)
system.tol2bus.respLayer1.occupancy        3171315473                       # Layer occupancy (ticks)
system.tol2bus.respLayer1.utilization             1.0                       # Layer utilization (%)

---------- End Simulation Statistics   ----------
