
---------- Begin Simulation Statistics ----------
sim_seconds                                  0.724653                       # Number of seconds simulated
sim_ticks                                724653045500                       # Number of ticks simulated
final_tick                               1354415913500                       # Number of ticks from beginning of simulation (restored from checkpoints and never reset)
sim_freq                                 1000000000000                       # Frequency of simulated ticks
host_inst_rate                                 184973                       # Simulator instruction rate (inst/s)
host_op_rate                                   202911                       # Simulator op (including micro ops) rate (op/s)
host_tick_rate                               67020574                       # Simulator tick rate (ticks/s)
host_mem_usage                                2249296                       # Number of bytes of host memory used
host_seconds                                 10812.40                       # Real time elapsed on the host
sim_insts                                  2000000004                       # Number of instructions simulated
sim_ops                                    2193956245                       # Number of ops (including micro ops) simulated
system.voltage_domain.voltage                       1                       # Voltage in Volts
system.clk_domain.clock                           500                       # Clock period in ticks
system.mem_ctrls.pwrStateResidencyTicks::UNDEFINED 1354415913500                       # Cumulative time (in ticks) in various power states
system.mem_ctrls.bytes_read::l2.prefetcher    996304640                       # Number of bytes read from this memory
system.mem_ctrls.bytes_read::switch_cpus.inst       809792                       # Number of bytes read from this memory
system.mem_ctrls.bytes_read::switch_cpus.data    418313792                       # Number of bytes read from this memory
system.mem_ctrls.bytes_read::total         1415428224                       # Number of bytes read from this memory
system.mem_ctrls.bytes_inst_read::switch_cpus.inst       809792                       # Number of instructions bytes read from this memory
system.mem_ctrls.bytes_inst_read::total        809792                       # Number of instructions bytes read from this memory
system.mem_ctrls.bytes_written::writebacks    253112384                       # Number of bytes written to this memory
system.mem_ctrls.bytes_written::total       253112384                       # Number of bytes written to this memory
system.mem_ctrls.num_reads::l2.prefetcher     15567260                       # Number of read requests responded to by this memory
system.mem_ctrls.num_reads::switch_cpus.inst        12653                       # Number of read requests responded to by this memory
system.mem_ctrls.num_reads::switch_cpus.data      6536153                       # Number of read requests responded to by this memory
system.mem_ctrls.num_reads::total            22116066                       # Number of read requests responded to by this memory
system.mem_ctrls.num_writes::writebacks       3954881                       # Number of write requests responded to by this memory
system.mem_ctrls.num_writes::total            3954881                       # Number of write requests responded to by this memory
system.mem_ctrls.bw_read::l2.prefetcher    1374871252                       # Total read bandwidth from this memory (bytes/s)
system.mem_ctrls.bw_read::switch_cpus.inst      1117489                       # Total read bandwidth from this memory (bytes/s)
system.mem_ctrls.bw_read::switch_cpus.data    577260793                       # Total read bandwidth from this memory (bytes/s)
system.mem_ctrls.bw_read::total            1953249535                       # Total read bandwidth from this memory (bytes/s)
system.mem_ctrls.bw_inst_read::switch_cpus.inst      1117489                       # Instruction read bandwidth from this memory (bytes/s)
system.mem_ctrls.bw_inst_read::total          1117489                       # Instruction read bandwidth from this memory (bytes/s)
system.mem_ctrls.bw_write::writebacks       349287684                       # Write bandwidth from this memory (bytes/s)
system.mem_ctrls.bw_write::total            349287684                       # Write bandwidth from this memory (bytes/s)
system.mem_ctrls.bw_total::writebacks       349287684                       # Total bandwidth to/from this memory (bytes/s)
system.mem_ctrls.bw_total::l2.prefetcher   1374871252                       # Total bandwidth to/from this memory (bytes/s)
system.mem_ctrls.bw_total::switch_cpus.inst      1117489                       # Total bandwidth to/from this memory (bytes/s)
system.mem_ctrls.bw_total::switch_cpus.data    577260793                       # Total bandwidth to/from this memory (bytes/s)
system.mem_ctrls.bw_total::total           2302537219                       # Total bandwidth to/from this memory (bytes/s)
system.mem_ctrls.readReqs                    22116066                       # Number of read requests accepted
system.mem_ctrls.writeReqs                    3954881                       # Number of write requests accepted
system.mem_ctrls.readBursts                  22116066                       # Number of DRAM read bursts, including those serviced by the write queue
system.mem_ctrls.writeBursts                  3954881                       # Number of DRAM write bursts, including those merged in the write queue
system.mem_ctrls.bytesReadDRAM             1414429760                       # Total number of bytes read from DRAM
system.mem_ctrls.bytesReadWrQ                  998464                       # Total number of bytes read from write queue
system.mem_ctrls.bytesWritten               253110848                       # Total number of bytes written to DRAM
system.mem_ctrls.bytesReadSys              1415428224                       # Total read bytes from the system interface side
system.mem_ctrls.bytesWrittenSys            253112384                       # Total written bytes from the system interface side
system.mem_ctrls.servicedByWrQ                  15601                       # Number of DRAM read bursts serviced by the write queue
system.mem_ctrls.mergedWrBursts                     7                       # Number of DRAM write bursts merged with an existing one
system.mem_ctrls.neitherReadNorWriteReqs            0                       # Number of requests that are neither read nor write
system.mem_ctrls.perBankRdBursts::0           1344421                       # Per bank write bursts
system.mem_ctrls.perBankRdBursts::1           1487373                       # Per bank write bursts
system.mem_ctrls.perBankRdBursts::2           1490409                       # Per bank write bursts
system.mem_ctrls.perBankRdBursts::3           1439270                       # Per bank write bursts
system.mem_ctrls.perBankRdBursts::4           1420833                       # Per bank write bursts
system.mem_ctrls.perBankRdBursts::5           1379593                       # Per bank write bursts
system.mem_ctrls.perBankRdBursts::6           1449274                       # Per bank write bursts
system.mem_ctrls.perBankRdBursts::7           1445741                       # Per bank write bursts
system.mem_ctrls.perBankRdBursts::8           1386260                       # Per bank write bursts
system.mem_ctrls.perBankRdBursts::9           1341964                       # Per bank write bursts
system.mem_ctrls.perBankRdBursts::10          1265818                       # Per bank write bursts
system.mem_ctrls.perBankRdBursts::11          1324833                       # Per bank write bursts
system.mem_ctrls.perBankRdBursts::12          1343378                       # Per bank write bursts
system.mem_ctrls.perBankRdBursts::13          1324392                       # Per bank write bursts
system.mem_ctrls.perBankRdBursts::14          1329123                       # Per bank write bursts
system.mem_ctrls.perBankRdBursts::15          1327783                       # Per bank write bursts
system.mem_ctrls.perBankWrBursts::0            244806                       # Per bank write bursts
system.mem_ctrls.perBankWrBursts::1            273159                       # Per bank write bursts
system.mem_ctrls.perBankWrBursts::2            267556                       # Per bank write bursts
system.mem_ctrls.perBankWrBursts::3            265548                       # Per bank write bursts
system.mem_ctrls.perBankWrBursts::4            270628                       # Per bank write bursts
system.mem_ctrls.perBankWrBursts::5            250982                       # Per bank write bursts
system.mem_ctrls.perBankWrBursts::6            239425                       # Per bank write bursts
system.mem_ctrls.perBankWrBursts::7            238752                       # Per bank write bursts
system.mem_ctrls.perBankWrBursts::8            245169                       # Per bank write bursts
system.mem_ctrls.perBankWrBursts::9            255425                       # Per bank write bursts
system.mem_ctrls.perBankWrBursts::10           248086                       # Per bank write bursts
system.mem_ctrls.perBankWrBursts::11           241085                       # Per bank write bursts
system.mem_ctrls.perBankWrBursts::12           226348                       # Per bank write bursts
system.mem_ctrls.perBankWrBursts::13           213967                       # Per bank write bursts
system.mem_ctrls.perBankWrBursts::14           237392                       # Per bank write bursts
system.mem_ctrls.perBankWrBursts::15           236529                       # Per bank write bursts
system.mem_ctrls.numRdRetry                         0                       # Number of times read queue was full causing retry
system.mem_ctrls.numWrRetry                         0                       # Number of times write queue was full causing retry
system.mem_ctrls.totGap                  724652670500                       # Total gap between requests
system.mem_ctrls.readPktSize::0                     0                       # Read request sizes (log2)
system.mem_ctrls.readPktSize::1                     0                       # Read request sizes (log2)
system.mem_ctrls.readPktSize::2                     0                       # Read request sizes (log2)
system.mem_ctrls.readPktSize::3                     0                       # Read request sizes (log2)
system.mem_ctrls.readPktSize::4                     0                       # Read request sizes (log2)
system.mem_ctrls.readPktSize::5                     0                       # Read request sizes (log2)
system.mem_ctrls.readPktSize::6              22116066                       # Read request sizes (log2)
system.mem_ctrls.writePktSize::0                    0                       # Write request sizes (log2)
system.mem_ctrls.writePktSize::1                    0                       # Write request sizes (log2)
system.mem_ctrls.writePktSize::2                    0                       # Write request sizes (log2)
system.mem_ctrls.writePktSize::3                    0                       # Write request sizes (log2)
system.mem_ctrls.writePktSize::4                    0                       # Write request sizes (log2)
system.mem_ctrls.writePktSize::5                    0                       # Write request sizes (log2)
system.mem_ctrls.writePktSize::6              3954881                       # Write request sizes (log2)
system.mem_ctrls.rdQLenPdf::0                 6462450                       # What read queue length does an incoming req see
system.mem_ctrls.rdQLenPdf::1                 5465979                       # What read queue length does an incoming req see
system.mem_ctrls.rdQLenPdf::2                 2792655                       # What read queue length does an incoming req see
system.mem_ctrls.rdQLenPdf::3                 1567712                       # What read queue length does an incoming req see
system.mem_ctrls.rdQLenPdf::4                 1215003                       # What read queue length does an incoming req see
system.mem_ctrls.rdQLenPdf::5                  998735                       # What read queue length does an incoming req see
system.mem_ctrls.rdQLenPdf::6                  827987                       # What read queue length does an incoming req see
system.mem_ctrls.rdQLenPdf::7                  687976                       # What read queue length does an incoming req see
system.mem_ctrls.rdQLenPdf::8                  895841                       # What read queue length does an incoming req see
system.mem_ctrls.rdQLenPdf::9                  504048                       # What read queue length does an incoming req see
system.mem_ctrls.rdQLenPdf::10                 267323                       # What read queue length does an incoming req see
system.mem_ctrls.rdQLenPdf::11                 176833                       # What read queue length does an incoming req see
system.mem_ctrls.rdQLenPdf::12                 134477                       # What read queue length does an incoming req see
system.mem_ctrls.rdQLenPdf::13                  96448                       # What read queue length does an incoming req see
system.mem_ctrls.rdQLenPdf::14                   5536                       # What read queue length does an incoming req see
system.mem_ctrls.rdQLenPdf::15                   1462                       # What read queue length does an incoming req see
system.mem_ctrls.rdQLenPdf::16                      0                       # What read queue length does an incoming req see
system.mem_ctrls.rdQLenPdf::17                      0                       # What read queue length does an incoming req see
system.mem_ctrls.rdQLenPdf::18                      0                       # What read queue length does an incoming req see
system.mem_ctrls.rdQLenPdf::19                      0                       # What read queue length does an incoming req see
system.mem_ctrls.rdQLenPdf::20                      0                       # What read queue length does an incoming req see
system.mem_ctrls.rdQLenPdf::21                      0                       # What read queue length does an incoming req see
system.mem_ctrls.rdQLenPdf::22                      0                       # What read queue length does an incoming req see
system.mem_ctrls.rdQLenPdf::23                      0                       # What read queue length does an incoming req see
system.mem_ctrls.rdQLenPdf::24                      0                       # What read queue length does an incoming req see
system.mem_ctrls.rdQLenPdf::25                      0                       # What read queue length does an incoming req see
system.mem_ctrls.rdQLenPdf::26                      0                       # What read queue length does an incoming req see
system.mem_ctrls.rdQLenPdf::27                      0                       # What read queue length does an incoming req see
system.mem_ctrls.rdQLenPdf::28                      0                       # What read queue length does an incoming req see
system.mem_ctrls.rdQLenPdf::29                      0                       # What read queue length does an incoming req see
system.mem_ctrls.rdQLenPdf::30                      0                       # What read queue length does an incoming req see
system.mem_ctrls.rdQLenPdf::31                      0                       # What read queue length does an incoming req see
system.mem_ctrls.wrQLenPdf::0                       1                       # What write queue length does an incoming req see
system.mem_ctrls.wrQLenPdf::1                       1                       # What write queue length does an incoming req see
system.mem_ctrls.wrQLenPdf::2                       1                       # What write queue length does an incoming req see
system.mem_ctrls.wrQLenPdf::3                       1                       # What write queue length does an incoming req see
system.mem_ctrls.wrQLenPdf::4                       1                       # What write queue length does an incoming req see
system.mem_ctrls.wrQLenPdf::5                       1                       # What write queue length does an incoming req see
system.mem_ctrls.wrQLenPdf::6                       1                       # What write queue length does an incoming req see
system.mem_ctrls.wrQLenPdf::7                       1                       # What write queue length does an incoming req see
system.mem_ctrls.wrQLenPdf::8                       1                       # What write queue length does an incoming req see
system.mem_ctrls.wrQLenPdf::9                       1                       # What write queue length does an incoming req see
system.mem_ctrls.wrQLenPdf::10                      1                       # What write queue length does an incoming req see
system.mem_ctrls.wrQLenPdf::11                      1                       # What write queue length does an incoming req see
system.mem_ctrls.wrQLenPdf::12                      1                       # What write queue length does an incoming req see
system.mem_ctrls.wrQLenPdf::13                      1                       # What write queue length does an incoming req see
system.mem_ctrls.wrQLenPdf::14                      1                       # What write queue length does an incoming req see
system.mem_ctrls.wrQLenPdf::15                  14159                       # What write queue length does an incoming req see
system.mem_ctrls.wrQLenPdf::16                  18223                       # What write queue length does an incoming req see
system.mem_ctrls.wrQLenPdf::17                 126633                       # What write queue length does an incoming req see
system.mem_ctrls.wrQLenPdf::18                 185777                       # What write queue length does an incoming req see
system.mem_ctrls.wrQLenPdf::19                 215534                       # What write queue length does an incoming req see
system.mem_ctrls.wrQLenPdf::20                 231364                       # What write queue length does an incoming req see
system.mem_ctrls.wrQLenPdf::21                 241567                       # What write queue length does an incoming req see
system.mem_ctrls.wrQLenPdf::22                 248584                       # What write queue length does an incoming req see
system.mem_ctrls.wrQLenPdf::23                 253475                       # What write queue length does an incoming req see
system.mem_ctrls.wrQLenPdf::24                 256131                       # What write queue length does an incoming req see
system.mem_ctrls.wrQLenPdf::25                 257672                       # What write queue length does an incoming req see
system.mem_ctrls.wrQLenPdf::26                 259336                       # What write queue length does an incoming req see
system.mem_ctrls.wrQLenPdf::27                 261309                       # What write queue length does an incoming req see
system.mem_ctrls.wrQLenPdf::28                 263879                       # What write queue length does an incoming req see
system.mem_ctrls.wrQLenPdf::29                 266066                       # What write queue length does an incoming req see
system.mem_ctrls.wrQLenPdf::30                 266243                       # What write queue length does an incoming req see
system.mem_ctrls.wrQLenPdf::31                 257829                       # What write queue length does an incoming req see
system.mem_ctrls.wrQLenPdf::32                 254707                       # What write queue length does an incoming req see
system.mem_ctrls.wrQLenPdf::33                  21181                       # What write queue length does an incoming req see
system.mem_ctrls.wrQLenPdf::34                  12913                       # What write queue length does an incoming req see
system.mem_ctrls.wrQLenPdf::35                   9037                       # What write queue length does an incoming req see
system.mem_ctrls.wrQLenPdf::36                   6898                       # What write queue length does an incoming req see
system.mem_ctrls.wrQLenPdf::37                   5343                       # What write queue length does an incoming req see
system.mem_ctrls.wrQLenPdf::38                   4192                       # What write queue length does an incoming req see
system.mem_ctrls.wrQLenPdf::39                   3239                       # What write queue length does an incoming req see
system.mem_ctrls.wrQLenPdf::40                   2557                       # What write queue length does an incoming req see
system.mem_ctrls.wrQLenPdf::41                   2072                       # What write queue length does an incoming req see
system.mem_ctrls.wrQLenPdf::42                   1661                       # What write queue length does an incoming req see
system.mem_ctrls.wrQLenPdf::43                   1353                       # What write queue length does an incoming req see
system.mem_ctrls.wrQLenPdf::44                   1162                       # What write queue length does an incoming req see
system.mem_ctrls.wrQLenPdf::45                    877                       # What write queue length does an incoming req see
system.mem_ctrls.wrQLenPdf::46                    713                       # What write queue length does an incoming req see
system.mem_ctrls.wrQLenPdf::47                    582                       # What write queue length does an incoming req see
system.mem_ctrls.wrQLenPdf::48                    532                       # What write queue length does an incoming req see
system.mem_ctrls.wrQLenPdf::49                    418                       # What write queue length does an incoming req see
system.mem_ctrls.wrQLenPdf::50                    356                       # What write queue length does an incoming req see
system.mem_ctrls.wrQLenPdf::51                    322                       # What write queue length does an incoming req see
system.mem_ctrls.wrQLenPdf::52                    259                       # What write queue length does an incoming req see
system.mem_ctrls.wrQLenPdf::53                    191                       # What write queue length does an incoming req see
system.mem_ctrls.wrQLenPdf::54                    176                       # What write queue length does an incoming req see
system.mem_ctrls.wrQLenPdf::55                    122                       # What write queue length does an incoming req see
system.mem_ctrls.wrQLenPdf::56                     85                       # What write queue length does an incoming req see
system.mem_ctrls.wrQLenPdf::57                     54                       # What write queue length does an incoming req see
system.mem_ctrls.wrQLenPdf::58                     44                       # What write queue length does an incoming req see
system.mem_ctrls.wrQLenPdf::59                     15                       # What write queue length does an incoming req see
system.mem_ctrls.wrQLenPdf::60                      5                       # What write queue length does an incoming req see
system.mem_ctrls.wrQLenPdf::61                      8                       # What write queue length does an incoming req see
system.mem_ctrls.wrQLenPdf::62                      4                       # What write queue length does an incoming req see
system.mem_ctrls.wrQLenPdf::63                      0                       # What write queue length does an incoming req see
system.mem_ctrls.bytesPerActivate::samples      5193349                       # Bytes accessed per row activation
system.mem_ctrls.bytesPerActivate::mean    321.091353                       # Bytes accessed per row activation
system.mem_ctrls.bytesPerActivate::gmean   180.248700                       # Bytes accessed per row activation
system.mem_ctrls.bytesPerActivate::stdev   349.668444                       # Bytes accessed per row activation
system.mem_ctrls.bytesPerActivate::0-127      2095048     40.34%     40.34% # Bytes accessed per row activation
system.mem_ctrls.bytesPerActivate::128-255      1148377     22.11%     62.45% # Bytes accessed per row activation
system.mem_ctrls.bytesPerActivate::256-383       420399      8.09%     70.55% # Bytes accessed per row activation
system.mem_ctrls.bytesPerActivate::384-511       245106      4.72%     75.27% # Bytes accessed per row activation
system.mem_ctrls.bytesPerActivate::512-639       189933      3.66%     78.93% # Bytes accessed per row activation
system.mem_ctrls.bytesPerActivate::640-767       138683      2.67%     81.60% # Bytes accessed per row activation
system.mem_ctrls.bytesPerActivate::768-895       108635      2.09%     83.69% # Bytes accessed per row activation
system.mem_ctrls.bytesPerActivate::896-1023        91864      1.77%     85.46% # Bytes accessed per row activation
system.mem_ctrls.bytesPerActivate::1024-1151       755304     14.54%    100.00% # Bytes accessed per row activation
system.mem_ctrls.bytesPerActivate::total      5193349                       # Bytes accessed per row activation
system.mem_ctrls.rdPerTurnAround::samples       244155                       # Reads before turning the bus around for writes
system.mem_ctrls.rdPerTurnAround::mean      90.518146                       # Reads before turning the bus around for writes
system.mem_ctrls.rdPerTurnAround::gmean     71.630990                       # Reads before turning the bus around for writes
system.mem_ctrls.rdPerTurnAround::stdev     79.287391                       # Reads before turning the bus around for writes
system.mem_ctrls.rdPerTurnAround::0-511        243515     99.74%     99.74% # Reads before turning the bus around for writes
system.mem_ctrls.rdPerTurnAround::512-1023          591      0.24%     99.98% # Reads before turning the bus around for writes
system.mem_ctrls.rdPerTurnAround::1024-1535           26      0.01%     99.99% # Reads before turning the bus around for writes
system.mem_ctrls.rdPerTurnAround::1536-2047            9      0.00%     99.99% # Reads before turning the bus around for writes
system.mem_ctrls.rdPerTurnAround::2048-2559            3      0.00%    100.00% # Reads before turning the bus around for writes
system.mem_ctrls.rdPerTurnAround::2560-3071            2      0.00%    100.00% # Reads before turning the bus around for writes
system.mem_ctrls.rdPerTurnAround::3584-4095            4      0.00%    100.00% # Reads before turning the bus around for writes
system.mem_ctrls.rdPerTurnAround::5120-5631            1      0.00%    100.00% # Reads before turning the bus around for writes
system.mem_ctrls.rdPerTurnAround::5632-6143            2      0.00%    100.00% # Reads before turning the bus around for writes
system.mem_ctrls.rdPerTurnAround::6656-7167            1      0.00%    100.00% # Reads before turning the bus around for writes
system.mem_ctrls.rdPerTurnAround::8192-8703            1      0.00%    100.00% # Reads before turning the bus around for writes
system.mem_ctrls.rdPerTurnAround::total        244155                       # Reads before turning the bus around for writes
system.mem_ctrls.wrPerTurnAround::samples       244155                       # Writes before turning the bus around for reads
system.mem_ctrls.wrPerTurnAround::mean      16.198141                       # Writes before turning the bus around for reads
system.mem_ctrls.wrPerTurnAround::gmean     16.184273                       # Writes before turning the bus around for reads
system.mem_ctrls.wrPerTurnAround::stdev      0.711111                       # Writes before turning the bus around for reads
system.mem_ctrls.wrPerTurnAround::16           222183     91.00%     91.00% # Writes before turning the bus around for reads
system.mem_ctrls.wrPerTurnAround::17             4863      1.99%     92.99% # Writes before turning the bus around for reads
system.mem_ctrls.wrPerTurnAround::18            11259      4.61%     97.60% # Writes before turning the bus around for reads
system.mem_ctrls.wrPerTurnAround::19             3866      1.58%     99.19% # Writes before turning the bus around for reads
system.mem_ctrls.wrPerTurnAround::20             1234      0.51%     99.69% # Writes before turning the bus around for reads
system.mem_ctrls.wrPerTurnAround::21              426      0.17%     99.87% # Writes before turning the bus around for reads
system.mem_ctrls.wrPerTurnAround::22              167      0.07%     99.94% # Writes before turning the bus around for reads
system.mem_ctrls.wrPerTurnAround::23               75      0.03%     99.97% # Writes before turning the bus around for reads
system.mem_ctrls.wrPerTurnAround::24               33      0.01%     99.98% # Writes before turning the bus around for reads
system.mem_ctrls.wrPerTurnAround::25               13      0.01%     99.99% # Writes before turning the bus around for reads
system.mem_ctrls.wrPerTurnAround::26               14      0.01%     99.99% # Writes before turning the bus around for reads
system.mem_ctrls.wrPerTurnAround::27                4      0.00%     99.99% # Writes before turning the bus around for reads
system.mem_ctrls.wrPerTurnAround::28                6      0.00%    100.00% # Writes before turning the bus around for reads
system.mem_ctrls.wrPerTurnAround::29                4      0.00%    100.00% # Writes before turning the bus around for reads
system.mem_ctrls.wrPerTurnAround::30                5      0.00%    100.00% # Writes before turning the bus around for reads
system.mem_ctrls.wrPerTurnAround::31                2      0.00%    100.00% # Writes before turning the bus around for reads
system.mem_ctrls.wrPerTurnAround::32                1      0.00%    100.00% # Writes before turning the bus around for reads
system.mem_ctrls.wrPerTurnAround::total        244155                       # Writes before turning the bus around for reads
system.mem_ctrls.totQLat                 655414361527                       # Total ticks spent queuing
system.mem_ctrls.totMemAccLat            1069798080277                       # Total ticks spent from burst creation until serviced by the DRAM
system.mem_ctrls.totBusLat               110502325000                       # Total ticks spent in databus transfers
system.mem_ctrls.avgQLat                     29656.13                       # Average queueing delay per DRAM burst
system.mem_ctrls.avgBusLat                    5000.00                       # Average bus latency per DRAM burst
system.mem_ctrls.avgMemAccLat                48406.13                       # Average memory access latency per DRAM burst
system.mem_ctrls.avgRdBW                      1951.87                       # Average DRAM read bandwidth in MiByte/s
system.mem_ctrls.avgWrBW                       349.29                       # Average achieved write bandwidth in MiByte/s
system.mem_ctrls.avgRdBWSys                   1953.25                       # Average system read bandwidth in MiByte/s
system.mem_ctrls.avgWrBWSys                    349.29                       # Average system write bandwidth in MiByte/s
system.mem_ctrls.peakBW                      12800.00                       # Theoretical peak bandwidth in MiByte/s
system.mem_ctrls.busUtil                        17.98                       # Data bus utilization in percentage
system.mem_ctrls.busUtilRead                    15.25                       # Data bus utilization in percentage for reads
system.mem_ctrls.busUtilWrite                    2.73                       # Data bus utilization in percentage for writes
system.mem_ctrls.avgRdQLen                       3.03                       # Average read queue length when enqueuing
system.mem_ctrls.avgWrQLen                      25.75                       # Average write queue length when enqueuing
system.mem_ctrls.readRowHits                 18992739                       # Number of row buffer hits during reads
system.mem_ctrls.writeRowHits                 1869228                       # Number of row buffer hits during writes
system.mem_ctrls.readRowHitRate                 85.94                       # Row buffer hit rate for reads
system.mem_ctrls.writeRowHitRate                47.26                       # Row buffer hit rate for writes
system.mem_ctrls.avgGap                      27795.41                       # Average gap between requests
system.mem_ctrls.pageHitRate                    80.07                       # Row buffer hit rate, read and write combined
system.mem_ctrls_0.actEnergy              18970444500                       # Energy for activate commands per rank (pJ)
system.mem_ctrls_0.preEnergy              10083015195                       # Energy for precharge commands per rank (pJ)
system.mem_ctrls_0.readEnergy             81802365960                       # Energy for read commands per rank (pJ)
system.mem_ctrls_0.writeEnergy            10705468320                       # Energy for write commands per rank (pJ)
system.mem_ctrls_0.refreshEnergy         57267238080.000015                       # Energy for refresh commands per rank (pJ)
system.mem_ctrls_0.actBackEnergy         129500576010                       # Energy for active background per rank (pJ)
system.mem_ctrls_0.preBackEnergy           1638665760                       # Energy for precharge background per rank (pJ)
system.mem_ctrls_0.actPowerDownEnergy    181030364100                       # Energy for active power-down per rank (pJ)
system.mem_ctrls_0.prePowerDownEnergy     12168670080                       # Energy for precharge power-down per rank (pJ)
system.mem_ctrls_0.selfRefreshEnergy       2499832650                       # Energy for self refresh per rank (pJ)
system.mem_ctrls_0.totalEnergy           505670658855                       # Total energy per rank (pJ)
system.mem_ctrls_0.averagePower            697.810714                       # Core power per rank (mW)
system.mem_ctrls_0.totalIdleTime         436361012193                       # Total Idle time Per DRAM Rank
system.mem_ctrls_0.memoryStateTime::IDLE    949349433                       # Time in different power states
system.mem_ctrls_0.memoryStateTime::REF   24232376000                       # Time in different power states
system.mem_ctrls_0.memoryStateTime::SREF   7698582000                       # Time in different power states
system.mem_ctrls_0.memoryStateTime::PRE_PDN  31687807371                       # Time in different power states
system.mem_ctrls_0.memoryStateTime::ACT  263110164124                       # Time in different power states
system.mem_ctrls_0.memoryStateTime::ACT_PDN 396974766572                       # Time in different power states
system.mem_ctrls_1.actEnergy              18110110200                       # Energy for activate commands per rank (pJ)
system.mem_ctrls_1.preEnergy               9625744260                       # Energy for precharge commands per rank (pJ)
system.mem_ctrls_1.readEnergy             75994954140                       # Energy for read commands per rank (pJ)
system.mem_ctrls_1.writeEnergy             9938885220                       # Energy for write commands per rank (pJ)
system.mem_ctrls_1.refreshEnergy         57325014240.000015                       # Energy for refresh commands per rank (pJ)
system.mem_ctrls_1.actBackEnergy         127116504270                       # Energy for active background per rank (pJ)
system.mem_ctrls_1.preBackEnergy           1727773920                       # Energy for precharge background per rank (pJ)
system.mem_ctrls_1.actPowerDownEnergy    182208338640                       # Energy for active power-down per rank (pJ)
system.mem_ctrls_1.prePowerDownEnergy     13332667200                       # Energy for precharge power-down per rank (pJ)
system.mem_ctrls_1.selfRefreshEnergy       2360209935                       # Energy for self refresh per rank (pJ)
system.mem_ctrls_1.totalEnergy           497745148635                       # Total energy per rank (pJ)
system.mem_ctrls_1.averagePower            686.873742                       # Core power per rank (mW)
system.mem_ctrls_1.totalIdleTime         441361574789                       # Total Idle time Per DRAM Rank
system.mem_ctrls_1.memoryStateTime::IDLE   1050893896                       # Time in different power states
system.mem_ctrls_1.memoryStateTime::REF   24256888000                       # Time in different power states
system.mem_ctrls_1.memoryStateTime::SREF   7078182000                       # Time in different power states
system.mem_ctrls_1.memoryStateTime::PRE_PDN  34718341041                       # Time in different power states
system.mem_ctrls_1.memoryStateTime::ACT  257983654065                       # Time in different power states
system.mem_ctrls_1.memoryStateTime::ACT_PDN 399565086498                       # Time in different power states
system.pwrStateResidencyTicks::UNDEFINED 1354415913500                       # Cumulative time (in ticks) in various power states
system.cpu_voltage_domain.voltage                   1                       # Voltage in Volts
system.cpu_clk_domain.clock                       500                       # Clock period in ticks
system.cpu.dstage2_mmu.stage2_tlb.walker.pwrStateResidencyTicks::UNDEFINED 1354415913500                       # Cumulative time (in ticks) in various power states
system.cpu.dstage2_mmu.stage2_tlb.walker.walks            0                       # Table walker walks requested
system.cpu.dstage2_mmu.stage2_tlb.walker.walkRequestOrigin_Requested::Data            0                       # Table walker requests started/completed, data/inst
system.cpu.dstage2_mmu.stage2_tlb.walker.walkRequestOrigin_Requested::Inst            0                       # Table walker requests started/completed, data/inst
system.cpu.dstage2_mmu.stage2_tlb.walker.walkRequestOrigin_Requested::total            0                       # Table walker requests started/completed, data/inst
system.cpu.dstage2_mmu.stage2_tlb.walker.walkRequestOrigin_Completed::Data            0                       # Table walker requests started/completed, data/inst
system.cpu.dstage2_mmu.stage2_tlb.walker.walkRequestOrigin_Completed::Inst            0                       # Table walker requests started/completed, data/inst
system.cpu.dstage2_mmu.stage2_tlb.walker.walkRequestOrigin_Completed::total            0                       # Table walker requests started/completed, data/inst
system.cpu.dstage2_mmu.stage2_tlb.walker.walkRequestOrigin::total            0                       # Table walker requests started/completed, data/inst
system.cpu.dstage2_mmu.stage2_tlb.inst_hits            0                       # ITB inst hits
system.cpu.dstage2_mmu.stage2_tlb.inst_misses            0                       # ITB inst misses
system.cpu.dstage2_mmu.stage2_tlb.read_hits            0                       # DTB read hits
system.cpu.dstage2_mmu.stage2_tlb.read_misses            0                       # DTB read misses
system.cpu.dstage2_mmu.stage2_tlb.write_hits            0                       # DTB write hits
system.cpu.dstage2_mmu.stage2_tlb.write_misses            0                       # DTB write misses
system.cpu.dstage2_mmu.stage2_tlb.flush_tlb            0                       # Number of times complete TLB was flushed
system.cpu.dstage2_mmu.stage2_tlb.flush_tlb_mva            0                       # Number of times TLB was flushed by MVA
system.cpu.dstage2_mmu.stage2_tlb.flush_tlb_mva_asid            0                       # Number of times TLB was flushed by MVA & ASID
system.cpu.dstage2_mmu.stage2_tlb.flush_tlb_asid            0                       # Number of times TLB was flushed by ASID
system.cpu.dstage2_mmu.stage2_tlb.flush_entries            0                       # Number of entries that have been flushed from TLB
system.cpu.dstage2_mmu.stage2_tlb.align_faults            0                       # Number of TLB faults due to alignment restrictions
system.cpu.dstage2_mmu.stage2_tlb.prefetch_faults            0                       # Number of TLB faults due to prefetch
system.cpu.dstage2_mmu.stage2_tlb.domain_faults            0                       # Number of TLB faults due to domain restrictions
system.cpu.dstage2_mmu.stage2_tlb.perms_faults            0                       # Number of TLB faults due to permissions restrictions
system.cpu.dstage2_mmu.stage2_tlb.read_accesses            0                       # DTB read accesses
system.cpu.dstage2_mmu.stage2_tlb.write_accesses            0                       # DTB write accesses
system.cpu.dstage2_mmu.stage2_tlb.inst_accesses            0                       # ITB inst accesses
system.cpu.dstage2_mmu.stage2_tlb.hits              0                       # DTB hits
system.cpu.dstage2_mmu.stage2_tlb.misses            0                       # DTB misses
system.cpu.dstage2_mmu.stage2_tlb.accesses            0                       # DTB accesses
system.cpu.dtb.walker.pwrStateResidencyTicks::UNDEFINED 1354415913500                       # Cumulative time (in ticks) in various power states
system.cpu.dtb.walker.walks                         0                       # Table walker walks requested
system.cpu.dtb.walker.walkRequestOrigin_Requested::Data            0                       # Table walker requests started/completed, data/inst
system.cpu.dtb.walker.walkRequestOrigin_Requested::Inst            0                       # Table walker requests started/completed, data/inst
system.cpu.dtb.walker.walkRequestOrigin_Requested::total            0                       # Table walker requests started/completed, data/inst
system.cpu.dtb.walker.walkRequestOrigin_Completed::Data            0                       # Table walker requests started/completed, data/inst
system.cpu.dtb.walker.walkRequestOrigin_Completed::Inst            0                       # Table walker requests started/completed, data/inst
system.cpu.dtb.walker.walkRequestOrigin_Completed::total            0                       # Table walker requests started/completed, data/inst
system.cpu.dtb.walker.walkRequestOrigin::total            0                       # Table walker requests started/completed, data/inst
system.cpu.dtb.inst_hits                            0                       # ITB inst hits
system.cpu.dtb.inst_misses                          0                       # ITB inst misses
system.cpu.dtb.read_hits                            0                       # DTB read hits
system.cpu.dtb.read_misses                          0                       # DTB read misses
system.cpu.dtb.write_hits                           0                       # DTB write hits
system.cpu.dtb.write_misses                         0                       # DTB write misses
system.cpu.dtb.flush_tlb                            0                       # Number of times complete TLB was flushed
system.cpu.dtb.flush_tlb_mva                        0                       # Number of times TLB was flushed by MVA
system.cpu.dtb.flush_tlb_mva_asid                   0                       # Number of times TLB was flushed by MVA & ASID
system.cpu.dtb.flush_tlb_asid                       0                       # Number of times TLB was flushed by ASID
system.cpu.dtb.flush_entries                        0                       # Number of entries that have been flushed from TLB
system.cpu.dtb.align_faults                         0                       # Number of TLB faults due to alignment restrictions
system.cpu.dtb.prefetch_faults                      0                       # Number of TLB faults due to prefetch
system.cpu.dtb.domain_faults                        0                       # Number of TLB faults due to domain restrictions
system.cpu.dtb.perms_faults                         0                       # Number of TLB faults due to permissions restrictions
system.cpu.dtb.read_accesses                        0                       # DTB read accesses
system.cpu.dtb.write_accesses                       0                       # DTB write accesses
system.cpu.dtb.inst_accesses                        0                       # ITB inst accesses
system.cpu.dtb.hits                                 0                       # DTB hits
system.cpu.dtb.misses                               0                       # DTB misses
system.cpu.dtb.accesses                             0                       # DTB accesses
system.cpu.istage2_mmu.stage2_tlb.walker.pwrStateResidencyTicks::UNDEFINED 1354415913500                       # Cumulative time (in ticks) in various power states
system.cpu.istage2_mmu.stage2_tlb.walker.walks            0                       # Table walker walks requested
system.cpu.istage2_mmu.stage2_tlb.walker.walkRequestOrigin_Requested::Data            0                       # Table walker requests started/completed, data/inst
system.cpu.istage2_mmu.stage2_tlb.walker.walkRequestOrigin_Requested::Inst            0                       # Table walker requests started/completed, data/inst
system.cpu.istage2_mmu.stage2_tlb.walker.walkRequestOrigin_Requested::total            0                       # Table walker requests started/completed, data/inst
system.cpu.istage2_mmu.stage2_tlb.walker.walkRequestOrigin_Completed::Data            0                       # Table walker requests started/completed, data/inst
system.cpu.istage2_mmu.stage2_tlb.walker.walkRequestOrigin_Completed::Inst            0                       # Table walker requests started/completed, data/inst
system.cpu.istage2_mmu.stage2_tlb.walker.walkRequestOrigin_Completed::total            0                       # Table walker requests started/completed, data/inst
system.cpu.istage2_mmu.stage2_tlb.walker.walkRequestOrigin::total            0                       # Table walker requests started/completed, data/inst
system.cpu.istage2_mmu.stage2_tlb.inst_hits            0                       # ITB inst hits
system.cpu.istage2_mmu.stage2_tlb.inst_misses            0                       # ITB inst misses
system.cpu.istage2_mmu.stage2_tlb.read_hits            0                       # DTB read hits
system.cpu.istage2_mmu.stage2_tlb.read_misses            0                       # DTB read misses
system.cpu.istage2_mmu.stage2_tlb.write_hits            0                       # DTB write hits
system.cpu.istage2_mmu.stage2_tlb.write_misses            0                       # DTB write misses
system.cpu.istage2_mmu.stage2_tlb.flush_tlb            0                       # Number of times complete TLB was flushed
system.cpu.istage2_mmu.stage2_tlb.flush_tlb_mva            0                       # Number of times TLB was flushed by MVA
system.cpu.istage2_mmu.stage2_tlb.flush_tlb_mva_asid            0                       # Number of times TLB was flushed by MVA & ASID
system.cpu.istage2_mmu.stage2_tlb.flush_tlb_asid            0                       # Number of times TLB was flushed by ASID
system.cpu.istage2_mmu.stage2_tlb.flush_entries            0                       # Number of entries that have been flushed from TLB
system.cpu.istage2_mmu.stage2_tlb.align_faults            0                       # Number of TLB faults due to alignment restrictions
system.cpu.istage2_mmu.stage2_tlb.prefetch_faults            0                       # Number of TLB faults due to prefetch
system.cpu.istage2_mmu.stage2_tlb.domain_faults            0                       # Number of TLB faults due to domain restrictions
system.cpu.istage2_mmu.stage2_tlb.perms_faults            0                       # Number of TLB faults due to permissions restrictions
system.cpu.istage2_mmu.stage2_tlb.read_accesses            0                       # DTB read accesses
system.cpu.istage2_mmu.stage2_tlb.write_accesses            0                       # DTB write accesses
system.cpu.istage2_mmu.stage2_tlb.inst_accesses            0                       # ITB inst accesses
system.cpu.istage2_mmu.stage2_tlb.hits              0                       # DTB hits
system.cpu.istage2_mmu.stage2_tlb.misses            0                       # DTB misses
system.cpu.istage2_mmu.stage2_tlb.accesses            0                       # DTB accesses
system.cpu.itb.walker.pwrStateResidencyTicks::UNDEFINED 1354415913500                       # Cumulative time (in ticks) in various power states
system.cpu.itb.walker.walks                         0                       # Table walker walks requested
system.cpu.itb.walker.walkRequestOrigin_Requested::Data            0                       # Table walker requests started/completed, data/inst
system.cpu.itb.walker.walkRequestOrigin_Requested::Inst            0                       # Table walker requests started/completed, data/inst
system.cpu.itb.walker.walkRequestOrigin_Requested::total            0                       # Table walker requests started/completed, data/inst
system.cpu.itb.walker.walkRequestOrigin_Completed::Data            0                       # Table walker requests started/completed, data/inst
system.cpu.itb.walker.walkRequestOrigin_Completed::Inst            0                       # Table walker requests started/completed, data/inst
system.cpu.itb.walker.walkRequestOrigin_Completed::total            0                       # Table walker requests started/completed, data/inst
system.cpu.itb.walker.walkRequestOrigin::total            0                       # Table walker requests started/completed, data/inst
system.cpu.itb.inst_hits                            0                       # ITB inst hits
system.cpu.itb.inst_misses                          0                       # ITB inst misses
system.cpu.itb.read_hits                            0                       # DTB read hits
system.cpu.itb.read_misses                          0                       # DTB read misses
system.cpu.itb.write_hits                           0                       # DTB write hits
system.cpu.itb.write_misses                         0                       # DTB write misses
system.cpu.itb.flush_tlb                            0                       # Number of times complete TLB was flushed
system.cpu.itb.flush_tlb_mva                        0                       # Number of times TLB was flushed by MVA
system.cpu.itb.flush_tlb_mva_asid                   0                       # Number of times TLB was flushed by MVA & ASID
system.cpu.itb.flush_tlb_asid                       0                       # Number of times TLB was flushed by ASID
system.cpu.itb.flush_entries                        0                       # Number of entries that have been flushed from TLB
system.cpu.itb.align_faults                         0                       # Number of TLB faults due to alignment restrictions
system.cpu.itb.prefetch_faults                      0                       # Number of TLB faults due to prefetch
system.cpu.itb.domain_faults                        0                       # Number of TLB faults due to domain restrictions
system.cpu.itb.perms_faults                         0                       # Number of TLB faults due to permissions restrictions
system.cpu.itb.read_accesses                        0                       # DTB read accesses
system.cpu.itb.write_accesses                       0                       # DTB write accesses
system.cpu.itb.inst_accesses                        0                       # ITB inst accesses
system.cpu.itb.hits                                 0                       # DTB hits
system.cpu.itb.misses                               0                       # DTB misses
system.cpu.itb.accesses                             0                       # DTB accesses
system.cpu.workload.numSyscalls                   149                       # Number of system calls
system.cpu.pwrStateResidencyTicks::ON    1354415913500                       # Cumulative time (in ticks) in various power states
system.cpu.numCycles                                0                       # number of cpu cycles simulated
system.cpu.numWorkItemsStarted                      0                       # number of work items this cpu started
system.cpu.numWorkItemsCompleted                    0                       # number of work items this cpu completed
system.cpu.committedInsts                           0                       # Number of instructions committed
system.cpu.committedOps                             0                       # Number of ops (including micro ops) committed
system.cpu.num_int_alu_accesses                     0                       # Number of integer alu accesses
system.cpu.num_fp_alu_accesses                      0                       # Number of float alu accesses
system.cpu.num_vec_alu_accesses                     0                       # Number of vector alu accesses
system.cpu.num_func_calls                           0                       # number of times a function call or return occured
system.cpu.num_conditional_control_insts            0                       # number of instructions that are conditional controls
system.cpu.num_int_insts                            0                       # number of integer instructions
system.cpu.num_fp_insts                             0                       # number of float instructions
system.cpu.num_vec_insts                            0                       # number of vector instructions
system.cpu.num_int_register_reads                   0                       # number of times the integer registers were read
system.cpu.num_int_register_writes                  0                       # number of times the integer registers were written
system.cpu.num_fp_register_reads                    0                       # number of times the floating registers were read
system.cpu.num_fp_register_writes                   0                       # number of times the floating registers were written
system.cpu.num_vec_register_reads                   0                       # number of times the vector registers were read
system.cpu.num_vec_register_writes                  0                       # number of times the vector registers were written
system.cpu.num_mem_refs                             0                       # number of memory refs
system.cpu.num_load_insts                           0                       # Number of load instructions
system.cpu.num_store_insts                          0                       # Number of store instructions
system.cpu.num_idle_cycles                          0                       # Number of idle cycles
system.cpu.num_busy_cycles                          0                       # Number of busy cycles
system.cpu.not_idle_fraction                        1                       # Percentage of non-idle cycles
system.cpu.idle_fraction                            0                       # Percentage of idle cycles
system.cpu.op_class::No_OpClass                     0                       # Class of executed instruction
system.cpu.op_class::IntAlu                         0                       # Class of executed instruction
system.cpu.op_class::IntMult                        0                       # Class of executed instruction
system.cpu.op_class::IntDiv                         0                       # Class of executed instruction
system.cpu.op_class::FloatAdd                       0                       # Class of executed instruction
system.cpu.op_class::FloatCmp                       0                       # Class of executed instruction
system.cpu.op_class::FloatCvt                       0                       # Class of executed instruction
system.cpu.op_class::FloatMult                      0                       # Class of executed instruction
system.cpu.op_class::FloatMultAcc                   0                       # Class of executed instruction
system.cpu.op_class::FloatDiv                       0                       # Class of executed instruction
system.cpu.op_class::FloatMisc                      0                       # Class of executed instruction
system.cpu.op_class::FloatSqrt                      0                       # Class of executed instruction
system.cpu.op_class::SimdAdd                        0                       # Class of executed instruction
system.cpu.op_class::SimdAddAcc                     0                       # Class of executed instruction
system.cpu.op_class::SimdAlu                        0                       # Class of executed instruction
system.cpu.op_class::SimdCmp                        0                       # Class of executed instruction
system.cpu.op_class::SimdCvt                        0                       # Class of executed instruction
system.cpu.op_class::SimdMisc                       0                       # Class of executed instruction
system.cpu.op_class::SimdMult                       0                       # Class of executed instruction
system.cpu.op_class::SimdMultAcc                    0                       # Class of executed instruction
system.cpu.op_class::SimdShift                      0                       # Class of executed instruction
system.cpu.op_class::SimdShiftAcc                   0                       # Class of executed instruction
system.cpu.op_class::SimdSqrt                       0                       # Class of executed instruction
system.cpu.op_class::SimdFloatAdd                   0                       # Class of executed instruction
system.cpu.op_class::SimdFloatAlu                   0                       # Class of executed instruction
system.cpu.op_class::SimdFloatCmp                   0                       # Class of executed instruction
system.cpu.op_class::SimdFloatCvt                   0                       # Class of executed instruction
system.cpu.op_class::SimdFloatDiv                   0                       # Class of executed instruction
system.cpu.op_class::SimdFloatMisc                  0                       # Class of executed instruction
system.cpu.op_class::SimdFloatMult                  0                       # Class of executed instruction
system.cpu.op_class::SimdFloatMultAcc               0                       # Class of executed instruction
system.cpu.op_class::SimdFloatSqrt                  0                       # Class of executed instruction
system.cpu.op_class::MemRead                        0                       # Class of executed instruction
system.cpu.op_class::MemWrite                       0                       # Class of executed instruction
system.cpu.op_class::FloatMemRead                   0                       # Class of executed instruction
system.cpu.op_class::FloatMemWrite                  0                       # Class of executed instruction
system.cpu.op_class::IprAccess                      0                       # Class of executed instruction
system.cpu.op_class::InstPrefetch                   0                       # Class of executed instruction
system.cpu.op_class::total                          0                       # Class of executed instruction
system.cpu.dcache.tags.pwrStateResidencyTicks::UNDEFINED 1354415913500                       # Cumulative time (in ticks) in various power states
system.cpu.dcache.tags.replacements          27619599                       # number of replacements
system.cpu.dcache.tags.tagsinuse                 1024                       # Cycle average of tags in use
system.cpu.dcache.tags.total_refs           234234521                       # Total number of references to valid blocks.
system.cpu.dcache.tags.sampled_refs          27620623                       # Sample count of references to valid blocks.
system.cpu.dcache.tags.avg_refs              8.480421                       # Average number of references to valid blocks.
system.cpu.dcache.tags.warmup_cycle                 0                       # Cycle when the warmup percentage was hit.
system.cpu.dcache.tags.occ_blocks::cpu.data     0.880067                       # Average occupied blocks per requestor
system.cpu.dcache.tags.occ_blocks::switch_cpus.data  1023.119933                       # Average occupied blocks per requestor
system.cpu.dcache.tags.occ_percent::cpu.data     0.000859                       # Average percentage of cache occupancy
system.cpu.dcache.tags.occ_percent::switch_cpus.data     0.999141                       # Average percentage of cache occupancy
system.cpu.dcache.tags.occ_percent::total            1                       # Average percentage of cache occupancy
system.cpu.dcache.tags.occ_task_id_blocks::1024         1024                       # Occupied blocks per task id
system.cpu.dcache.tags.age_task_id_blocks_1024::0          286                       # Occupied blocks per task id
system.cpu.dcache.tags.age_task_id_blocks_1024::1          711                       # Occupied blocks per task id
system.cpu.dcache.tags.age_task_id_blocks_1024::2           27                       # Occupied blocks per task id
system.cpu.dcache.tags.occ_task_id_percent::1024            1                       # Percentage of cache occupancy per task id
system.cpu.dcache.tags.tag_accesses         658095107                       # Number of tag accesses
system.cpu.dcache.tags.data_accesses        658095107                       # Number of data accesses
system.cpu.dcache.pwrStateResidencyTicks::UNDEFINED 1354415913500                       # Cumulative time (in ticks) in various power states
system.cpu.dcache.ReadReq_hits::switch_cpus.data    193579805                       # number of ReadReq hits
system.cpu.dcache.ReadReq_hits::total       193579805                       # number of ReadReq hits
system.cpu.dcache.WriteReq_hits::switch_cpus.data     39657761                       # number of WriteReq hits
system.cpu.dcache.WriteReq_hits::total       39657761                       # number of WriteReq hits
system.cpu.dcache.SoftPFReq_hits::switch_cpus.data        56499                       # number of SoftPFReq hits
system.cpu.dcache.SoftPFReq_hits::total         56499                       # number of SoftPFReq hits
system.cpu.dcache.LoadLockedReq_hits::switch_cpus.data         1735                       # number of LoadLockedReq hits
system.cpu.dcache.LoadLockedReq_hits::total         1735                       # number of LoadLockedReq hits
system.cpu.dcache.StoreCondReq_hits::switch_cpus.data         2119                       # number of StoreCondReq hits
system.cpu.dcache.StoreCondReq_hits::total         2119                       # number of StoreCondReq hits
system.cpu.dcache.demand_hits::switch_cpus.data    233237566                       # number of demand (read+write) hits
system.cpu.dcache.demand_hits::total        233237566                       # number of demand (read+write) hits
system.cpu.dcache.overall_hits::switch_cpus.data    233294065                       # number of overall hits
system.cpu.dcache.overall_hits::total       233294065                       # number of overall hits
system.cpu.dcache.ReadReq_misses::switch_cpus.data     76383584                       # number of ReadReq misses
system.cpu.dcache.ReadReq_misses::total      76383584                       # number of ReadReq misses
system.cpu.dcache.WriteReq_misses::switch_cpus.data      5484580                       # number of WriteReq misses
system.cpu.dcache.WriteReq_misses::total      5484580                       # number of WriteReq misses
system.cpu.dcache.SoftPFReq_misses::switch_cpus.data        71285                       # number of SoftPFReq misses
system.cpu.dcache.SoftPFReq_misses::total        71285                       # number of SoftPFReq misses
system.cpu.dcache.LoadLockedReq_misses::switch_cpus.data          385                       # number of LoadLockedReq misses
system.cpu.dcache.LoadLockedReq_misses::total          385                       # number of LoadLockedReq misses
system.cpu.dcache.StoreCondReq_misses::switch_cpus.data            1                       # number of StoreCondReq misses
system.cpu.dcache.StoreCondReq_misses::total            1                       # number of StoreCondReq misses
system.cpu.dcache.demand_misses::switch_cpus.data     81868164                       # number of demand (read+write) misses
system.cpu.dcache.demand_misses::total       81868164                       # number of demand (read+write) misses
system.cpu.dcache.overall_misses::switch_cpus.data     81939449                       # number of overall misses
system.cpu.dcache.overall_misses::total      81939449                       # number of overall misses
system.cpu.dcache.ReadReq_miss_latency::switch_cpus.data 2361175634500                       # number of ReadReq miss cycles
system.cpu.dcache.ReadReq_miss_latency::total 2361175634500                       # number of ReadReq miss cycles
system.cpu.dcache.WriteReq_miss_latency::switch_cpus.data  98613782462                       # number of WriteReq miss cycles
system.cpu.dcache.WriteReq_miss_latency::total  98613782462                       # number of WriteReq miss cycles
system.cpu.dcache.LoadLockedReq_miss_latency::switch_cpus.data     16773000                       # number of LoadLockedReq miss cycles
system.cpu.dcache.LoadLockedReq_miss_latency::total     16773000                       # number of LoadLockedReq miss cycles
system.cpu.dcache.StoreCondReq_miss_latency::switch_cpus.data         9500                       # number of StoreCondReq miss cycles
system.cpu.dcache.StoreCondReq_miss_latency::total         9500                       # number of StoreCondReq miss cycles
system.cpu.dcache.demand_miss_latency::switch_cpus.data 2459789416962                       # number of demand (read+write) miss cycles
system.cpu.dcache.demand_miss_latency::total 2459789416962                       # number of demand (read+write) miss cycles
system.cpu.dcache.overall_miss_latency::switch_cpus.data 2459789416962                       # number of overall miss cycles
system.cpu.dcache.overall_miss_latency::total 2459789416962                       # number of overall miss cycles
system.cpu.dcache.ReadReq_accesses::switch_cpus.data    269963389                       # number of ReadReq accesses(hits+misses)
system.cpu.dcache.ReadReq_accesses::total    269963389                       # number of ReadReq accesses(hits+misses)
system.cpu.dcache.WriteReq_accesses::switch_cpus.data     45142341                       # number of WriteReq accesses(hits+misses)
system.cpu.dcache.WriteReq_accesses::total     45142341                       # number of WriteReq accesses(hits+misses)
system.cpu.dcache.SoftPFReq_accesses::switch_cpus.data       127784                       # number of SoftPFReq accesses(hits+misses)
system.cpu.dcache.SoftPFReq_accesses::total       127784                       # number of SoftPFReq accesses(hits+misses)
system.cpu.dcache.LoadLockedReq_accesses::switch_cpus.data         2120                       # number of LoadLockedReq accesses(hits+misses)
system.cpu.dcache.LoadLockedReq_accesses::total         2120                       # number of LoadLockedReq accesses(hits+misses)
system.cpu.dcache.StoreCondReq_accesses::switch_cpus.data         2120                       # number of StoreCondReq accesses(hits+misses)
system.cpu.dcache.StoreCondReq_accesses::total         2120                       # number of StoreCondReq accesses(hits+misses)
system.cpu.dcache.demand_accesses::switch_cpus.data    315105730                       # number of demand (read+write) accesses
system.cpu.dcache.demand_accesses::total    315105730                       # number of demand (read+write) accesses
system.cpu.dcache.overall_accesses::switch_cpus.data    315233514                       # number of overall (read+write) accesses
system.cpu.dcache.overall_accesses::total    315233514                       # number of overall (read+write) accesses
system.cpu.dcache.ReadReq_miss_rate::switch_cpus.data     0.282941                       # miss rate for ReadReq accesses
system.cpu.dcache.ReadReq_miss_rate::total     0.282941                       # miss rate for ReadReq accesses
system.cpu.dcache.WriteReq_miss_rate::switch_cpus.data     0.121495                       # miss rate for WriteReq accesses
system.cpu.dcache.WriteReq_miss_rate::total     0.121495                       # miss rate for WriteReq accesses
system.cpu.dcache.SoftPFReq_miss_rate::switch_cpus.data     0.557855                       # miss rate for SoftPFReq accesses
system.cpu.dcache.SoftPFReq_miss_rate::total     0.557855                       # miss rate for SoftPFReq accesses
system.cpu.dcache.LoadLockedReq_miss_rate::switch_cpus.data     0.181604                       # miss rate for LoadLockedReq accesses
system.cpu.dcache.LoadLockedReq_miss_rate::total     0.181604                       # miss rate for LoadLockedReq accesses
system.cpu.dcache.StoreCondReq_miss_rate::switch_cpus.data     0.000472                       # miss rate for StoreCondReq accesses
system.cpu.dcache.StoreCondReq_miss_rate::total     0.000472                       # miss rate for StoreCondReq accesses
system.cpu.dcache.demand_miss_rate::switch_cpus.data     0.259812                       # miss rate for demand accesses
system.cpu.dcache.demand_miss_rate::total     0.259812                       # miss rate for demand accesses
system.cpu.dcache.overall_miss_rate::switch_cpus.data     0.259933                       # miss rate for overall accesses
system.cpu.dcache.overall_miss_rate::total     0.259933                       # miss rate for overall accesses
system.cpu.dcache.ReadReq_avg_miss_latency::switch_cpus.data 30912.082294                       # average ReadReq miss latency
system.cpu.dcache.ReadReq_avg_miss_latency::total 30912.082294                       # average ReadReq miss latency
system.cpu.dcache.WriteReq_avg_miss_latency::switch_cpus.data 17980.188540                       # average WriteReq miss latency
system.cpu.dcache.WriteReq_avg_miss_latency::total 17980.188540                       # average WriteReq miss latency
system.cpu.dcache.LoadLockedReq_avg_miss_latency::switch_cpus.data 43566.233766                       # average LoadLockedReq miss latency
system.cpu.dcache.LoadLockedReq_avg_miss_latency::total 43566.233766                       # average LoadLockedReq miss latency
system.cpu.dcache.StoreCondReq_avg_miss_latency::switch_cpus.data         9500                       # average StoreCondReq miss latency
system.cpu.dcache.StoreCondReq_avg_miss_latency::total         9500                       # average StoreCondReq miss latency
system.cpu.dcache.demand_avg_miss_latency::switch_cpus.data 30045.738133                       # average overall miss latency
system.cpu.dcache.demand_avg_miss_latency::total 30045.738133                       # average overall miss latency
system.cpu.dcache.overall_avg_miss_latency::switch_cpus.data 30019.599192                       # average overall miss latency
system.cpu.dcache.overall_avg_miss_latency::total 30019.599192                       # average overall miss latency
system.cpu.dcache.blocked_cycles::no_mshrs      1071490                       # number of cycles access was blocked
system.cpu.dcache.blocked_cycles::no_targets    122805716                       # number of cycles access was blocked
system.cpu.dcache.blocked::no_mshrs             59281                       # number of cycles access was blocked
system.cpu.dcache.blocked::no_targets         1670793                       # number of cycles access was blocked
system.cpu.dcache.avg_blocked_cycles::no_mshrs    18.074763                       # average number of cycles each access was blocked
system.cpu.dcache.avg_blocked_cycles::no_targets    73.501455                       # average number of cycles each access was blocked
system.cpu.dcache.writebacks::writebacks     27619599                       # number of writebacks
system.cpu.dcache.writebacks::total          27619599                       # number of writebacks
system.cpu.dcache.ReadReq_mshr_hits::switch_cpus.data     50831056                       # number of ReadReq MSHR hits
system.cpu.dcache.ReadReq_mshr_hits::total     50831056                       # number of ReadReq MSHR hits
system.cpu.dcache.WriteReq_mshr_hits::switch_cpus.data      3454267                       # number of WriteReq MSHR hits
system.cpu.dcache.WriteReq_mshr_hits::total      3454267                       # number of WriteReq MSHR hits
system.cpu.dcache.demand_mshr_hits::switch_cpus.data     54285323                       # number of demand (read+write) MSHR hits
system.cpu.dcache.demand_mshr_hits::total     54285323                       # number of demand (read+write) MSHR hits
system.cpu.dcache.overall_mshr_hits::switch_cpus.data     54285323                       # number of overall MSHR hits
system.cpu.dcache.overall_mshr_hits::total     54285323                       # number of overall MSHR hits
system.cpu.dcache.ReadReq_mshr_misses::switch_cpus.data     25552528                       # number of ReadReq MSHR misses
system.cpu.dcache.ReadReq_mshr_misses::total     25552528                       # number of ReadReq MSHR misses
system.cpu.dcache.WriteReq_mshr_misses::switch_cpus.data      2030313                       # number of WriteReq MSHR misses
system.cpu.dcache.WriteReq_mshr_misses::total      2030313                       # number of WriteReq MSHR misses
system.cpu.dcache.SoftPFReq_mshr_misses::switch_cpus.data        36390                       # number of SoftPFReq MSHR misses
system.cpu.dcache.SoftPFReq_mshr_misses::total        36390                       # number of SoftPFReq MSHR misses
system.cpu.dcache.LoadLockedReq_mshr_misses::switch_cpus.data          385                       # number of LoadLockedReq MSHR misses
system.cpu.dcache.LoadLockedReq_mshr_misses::total          385                       # number of LoadLockedReq MSHR misses
system.cpu.dcache.StoreCondReq_mshr_misses::switch_cpus.data            1                       # number of StoreCondReq MSHR misses
system.cpu.dcache.StoreCondReq_mshr_misses::total            1                       # number of StoreCondReq MSHR misses
system.cpu.dcache.demand_mshr_misses::switch_cpus.data     27582841                       # number of demand (read+write) MSHR misses
system.cpu.dcache.demand_mshr_misses::total     27582841                       # number of demand (read+write) MSHR misses
system.cpu.dcache.overall_mshr_misses::switch_cpus.data     27619231                       # number of overall MSHR misses
system.cpu.dcache.overall_mshr_misses::total     27619231                       # number of overall MSHR misses
system.cpu.dcache.ReadReq_mshr_miss_latency::switch_cpus.data 666602716500                       # number of ReadReq MSHR miss cycles
system.cpu.dcache.ReadReq_mshr_miss_latency::total 666602716500                       # number of ReadReq MSHR miss cycles
system.cpu.dcache.WriteReq_mshr_miss_latency::switch_cpus.data  41877660937                       # number of WriteReq MSHR miss cycles
system.cpu.dcache.WriteReq_mshr_miss_latency::total  41877660937                       # number of WriteReq MSHR miss cycles
system.cpu.dcache.SoftPFReq_mshr_miss_latency::switch_cpus.data   3151929500                       # number of SoftPFReq MSHR miss cycles
system.cpu.dcache.SoftPFReq_mshr_miss_latency::total   3151929500                       # number of SoftPFReq MSHR miss cycles
system.cpu.dcache.LoadLockedReq_mshr_miss_latency::switch_cpus.data     16388000                       # number of LoadLockedReq MSHR miss cycles
system.cpu.dcache.LoadLockedReq_mshr_miss_latency::total     16388000                       # number of LoadLockedReq MSHR miss cycles
system.cpu.dcache.StoreCondReq_mshr_miss_latency::switch_cpus.data         8500                       # number of StoreCondReq MSHR miss cycles
system.cpu.dcache.StoreCondReq_mshr_miss_latency::total         8500                       # number of StoreCondReq MSHR miss cycles
system.cpu.dcache.demand_mshr_miss_latency::switch_cpus.data 708480377437                       # number of demand (read+write) MSHR miss cycles
system.cpu.dcache.demand_mshr_miss_latency::total 708480377437                       # number of demand (read+write) MSHR miss cycles
system.cpu.dcache.overall_mshr_miss_latency::switch_cpus.data 711632306937                       # number of overall MSHR miss cycles
system.cpu.dcache.overall_mshr_miss_latency::total 711632306937                       # number of overall MSHR miss cycles
system.cpu.dcache.ReadReq_mshr_miss_rate::switch_cpus.data     0.094652                       # mshr miss rate for ReadReq accesses
system.cpu.dcache.ReadReq_mshr_miss_rate::total     0.094652                       # mshr miss rate for ReadReq accesses
system.cpu.dcache.WriteReq_mshr_miss_rate::switch_cpus.data     0.044976                       # mshr miss rate for WriteReq accesses
system.cpu.dcache.WriteReq_mshr_miss_rate::total     0.044976                       # mshr miss rate for WriteReq accesses
system.cpu.dcache.SoftPFReq_mshr_miss_rate::switch_cpus.data     0.284777                       # mshr miss rate for SoftPFReq accesses
system.cpu.dcache.SoftPFReq_mshr_miss_rate::total     0.284777                       # mshr miss rate for SoftPFReq accesses
system.cpu.dcache.LoadLockedReq_mshr_miss_rate::switch_cpus.data     0.181604                       # mshr miss rate for LoadLockedReq accesses
system.cpu.dcache.LoadLockedReq_mshr_miss_rate::total     0.181604                       # mshr miss rate for LoadLockedReq accesses
system.cpu.dcache.StoreCondReq_mshr_miss_rate::switch_cpus.data     0.000472                       # mshr miss rate for StoreCondReq accesses
system.cpu.dcache.StoreCondReq_mshr_miss_rate::total     0.000472                       # mshr miss rate for StoreCondReq accesses
system.cpu.dcache.demand_mshr_miss_rate::switch_cpus.data     0.087535                       # mshr miss rate for demand accesses
system.cpu.dcache.demand_mshr_miss_rate::total     0.087535                       # mshr miss rate for demand accesses
system.cpu.dcache.overall_mshr_miss_rate::switch_cpus.data     0.087615                       # mshr miss rate for overall accesses
system.cpu.dcache.overall_mshr_miss_rate::total     0.087615                       # mshr miss rate for overall accesses
system.cpu.dcache.ReadReq_avg_mshr_miss_latency::switch_cpus.data 26087.544704                       # average ReadReq mshr miss latency
system.cpu.dcache.ReadReq_avg_mshr_miss_latency::total 26087.544704                       # average ReadReq mshr miss latency
system.cpu.dcache.WriteReq_avg_mshr_miss_latency::switch_cpus.data 20626.209327                       # average WriteReq mshr miss latency
system.cpu.dcache.WriteReq_avg_mshr_miss_latency::total 20626.209327                       # average WriteReq mshr miss latency
system.cpu.dcache.SoftPFReq_avg_mshr_miss_latency::switch_cpus.data 86615.265183                       # average SoftPFReq mshr miss latency
system.cpu.dcache.SoftPFReq_avg_mshr_miss_latency::total 86615.265183                       # average SoftPFReq mshr miss latency
system.cpu.dcache.LoadLockedReq_avg_mshr_miss_latency::switch_cpus.data 42566.233766                       # average LoadLockedReq mshr miss latency
system.cpu.dcache.LoadLockedReq_avg_mshr_miss_latency::total 42566.233766                       # average LoadLockedReq mshr miss latency
system.cpu.dcache.StoreCondReq_avg_mshr_miss_latency::switch_cpus.data         8500                       # average StoreCondReq mshr miss latency
system.cpu.dcache.StoreCondReq_avg_mshr_miss_latency::total         8500                       # average StoreCondReq mshr miss latency
[...]
system.switch_cpus.iew.iewIdleCycles                0                       # Number of cycles IEW is idle
system.switch_cpus.iew.iewSquashCycles        7629071                       # Number of cycles IEW is squashing
system.switch_cpus.iew.iewBlockCycles       292685043                       # Number of cycles IEW is blocking
system.switch_cpus.iew.iewUnblockCycles       4753355                       # Number of cycles IEW is unblocking
system.switch_cpus.iew.iewDispatchedInsts   1166414143                       # Number of instructions dispatched to IQ
system.switch_cpus.iew.iewDispSquashedInsts            0                       # Number of squashed instructions skipped by dispatch
system.switch_cpus.iew.iewDispLoadInsts     285355267                       # Number of dispatched load instructions
system.switch_cpus.iew.iewDispStoreInsts     50620097                       # Number of dispatched store instructions
system.switch_cpus.iew.iewDispNonSpecInsts         2362                       # Number of dispatched non-speculative instructions
system.switch_cpus.iew.iewIQFullEvents        1928918                       # Number of times the IQ has become full, causing a stall
system.switch_cpus.iew.iewLSQFullEvents       1826643                       # Number of times the LSQ has become full, causing a stall
system.switch_cpus.iew.memOrderViolationEvents         8036                       # Number of memory order violations
system.switch_cpus.iew.predictedTakenIncorrect      4355459                       # Number of branches that were predicted taken incorrectly
system.switch_cpus.iew.predictedNotTakenIncorrect      3589820                       # Number of branches that were predicted not taken incorrectly
system.switch_cpus.iew.branchMispredicts      7945279                       # Number of branch mispredicts detected at execute
system.switch_cpus.iew.iewExecutedInsts    1114232599                       # Number of executed instructions
system.switch_cpus.iew.iewExecLoadInsts     277791142                       # Number of load instructions executed
system.switch_cpus.iew.iewExecSquashedInsts     12036695                       # Number of squashed instructions skipped in execute
system.switch_cpus.iew.exec_swp                     0                       # number of swp insts executed
system.switch_cpus.iew.exec_nop                   138                       # number of nop insts executed
system.switch_cpus.iew.exec_refs            326356409                       # number of memory reference insts executed
system.switch_cpus.iew.exec_branches        164191942                       # Number of branches executed
system.switch_cpus.iew.exec_stores           48565267                       # Number of stores executed
system.switch_cpus.iew.exec_rate             0.768804                       # Inst execution rate
system.switch_cpus.iew.wb_sent             1108459604                       # cumulative count of insts sent to commit
system.switch_cpus.iew.wb_count            1107991394                       # cumulative count of insts written-back
system.switch_cpus.iew.wb_producers         734007777                       # num instructions producing a value
system.switch_cpus.iew.wb_consumers        1175526456                       # num instructions consuming a value
system.switch_cpus.iew.wb_rate               0.764498                       # insts written-back per cycle
system.switch_cpus.iew.wb_fanout             0.624408                       # average fanout of values written-back
system.switch_cpus.commit.commitSquashedInsts    110995001                       # The number of squashed insts skipped by commit
system.switch_cpus.commit.commitNonSpecStalls         6509                       # The number of times commit has been forced to stall to communicate backwards
system.switch_cpus.commit.branchMispredicts      7621686                       # The number of times a branch was mispredicted
system.switch_cpus.commit.committed_per_cycle::samples   1430232740                       # Number of insts commited each cycle
system.switch_cpus.commit.committed_per_cycle::mean     0.729402                       # Number of insts commited each cycle
system.switch_cpus.commit.committed_per_cycle::stdev     1.887623                       # Number of insts commited each cycle
system.switch_cpus.commit.committed_per_cycle::underflows            0      0.00%      0.00% # Number of insts commited each cycle
system.switch_cpus.commit.committed_per_cycle::0   1113012280     77.82%     77.82% # Number of insts commited each cycle
system.switch_cpus.commit.committed_per_cycle::1    128732401      9.00%     86.82% # Number of insts commited each cycle
system.switch_cpus.commit.committed_per_cycle::2     60189421      4.21%     91.03% # Number of insts commited each cycle
system.switch_cpus.commit.committed_per_cycle::3     26894512      1.88%     92.91% # Number of insts commited each cycle
system.switch_cpus.commit.committed_per_cycle::4     14036585      0.98%     93.89% # Number of insts commited each cycle
system.switch_cpus.commit.committed_per_cycle::5      6875073      0.48%     94.37% # Number of insts commited each cycle
system.switch_cpus.commit.committed_per_cycle::6      6561477      0.46%     94.83% # Number of insts commited each cycle
system.switch_cpus.commit.committed_per_cycle::7      7918877      0.55%     95.38% # Number of insts commited each cycle
system.switch_cpus.commit.committed_per_cycle::8     66012114      4.62%    100.00% # Number of insts commited each cycle
system.switch_cpus.commit.committed_per_cycle::overflows            0      0.00%    100.00% # Number of insts commited each cycle
system.switch_cpus.commit.committed_per_cycle::min_value            0                       # Number of insts commited each cycle
system.switch_cpus.commit.committed_per_cycle::max_value            8                       # Number of insts commited each cycle
system.switch_cpus.commit.committed_per_cycle::total   1430232740                       # Number of insts commited each cycle
system.switch_cpus.commit.committedInsts   1000000003                       # Number of instructions committed
system.switch_cpus.commit.committedOps     1043214397                       # Number of ops (including micro ops) committed
system.switch_cpus.commit.swp_count                 0                       # Number of s/w prefetches committed
system.switch_cpus.commit.refs              306271842                       # Number of memory references committed
system.switch_cpus.commit.loads             259809808                       # Number of loads committed
system.switch_cpus.commit.membars                4240                       # Number of memory barriers committed
system.switch_cpus.commit.branches          156383015                       # Number of branches committed
system.switch_cpus.commit.vec_insts                 0                       # Number of committed Vector instructions.
system.switch_cpus.commit.fp_insts          283750065                       # Number of committed floating point instructions.
system.switch_cpus.commit.int_insts         745909269                       # Number of committed integer instructions.
system.switch_cpus.commit.function_calls      4648601                       # Number of function calls committed.
system.switch_cpus.commit.op_class_0::No_OpClass            0      0.00%      0.00% # Class of committed instruction
system.switch_cpus.commit.op_class_0::IntAlu    572324969     54.86%     54.86% # Class of committed instruction
system.switch_cpus.commit.op_class_0::IntMult      4209333      0.40%     55.27% # Class of committed instruction
system.switch_cpus.commit.op_class_0::IntDiv        95560      0.01%     55.27% # Class of committed instruction
system.switch_cpus.commit.op_class_0::FloatAdd            0      0.00%     55.27% # Class of committed instruction
system.switch_cpus.commit.op_class_0::FloatCmp            0      0.00%     55.27% # Class of committed instruction
system.switch_cpus.commit.op_class_0::FloatCvt            0      0.00%     55.27% # Class of committed instruction
system.switch_cpus.commit.op_class_0::FloatMult            0      0.00%     55.27% # Class of committed instruction
system.switch_cpus.commit.op_class_0::FloatMultAcc            0      0.00%     55.27% # Class of committed instruction
system.switch_cpus.commit.op_class_0::FloatDiv            0      0.00%     55.27% # Class of committed instruction
system.switch_cpus.commit.op_class_0::FloatMisc            0      0.00%     55.27% # Class of committed instruction
system.switch_cpus.commit.op_class_0::FloatSqrt            0      0.00%     55.27% # Class of committed instruction
system.switch_cpus.commit.op_class_0::SimdAdd            0      0.00%     55.27% # Class of committed instruction
system.switch_cpus.commit.op_class_0::SimdAddAcc            0      0.00%     55.27% # Class of committed instruction
system.switch_cpus.commit.op_class_0::SimdAlu            0      0.00%     55.27% # Class of committed instruction
system.switch_cpus.commit.op_class_0::SimdCmp            0      0.00%     55.27% # Class of committed instruction
system.switch_cpus.commit.op_class_0::SimdCvt            0      0.00%     55.27% # Class of committed instruction
system.switch_cpus.commit.op_class_0::SimdMisc            0      0.00%     55.27% # Class of committed instruction
system.switch_cpus.commit.op_class_0::SimdMult            0      0.00%     55.27% # Class of committed instruction
system.switch_cpus.commit.op_class_0::SimdMultAcc            0      0.00%     55.27% # Class of committed instruction
system.switch_cpus.commit.op_class_0::SimdShift            0      0.00%     55.27% # Class of committed instruction
system.switch_cpus.commit.op_class_0::SimdShiftAcc            0      0.00%     55.27% # Class of committed instruction
system.switch_cpus.commit.op_class_0::SimdSqrt            0      0.00%     55.27% # Class of committed instruction
system.switch_cpus.commit.op_class_0::SimdFloatAdd     11234601      1.08%     56.35% # Class of committed instruction
system.switch_cpus.commit.op_class_0::SimdFloatAlu            0      0.00%     56.35% # Class of committed instruction
system.switch_cpus.commit.op_class_0::SimdFloatCmp     37778668      3.62%     59.97% # Class of committed instruction
system.switch_cpus.commit.op_class_0::SimdFloatCvt       291784      0.03%     60.00% # Class of committed instruction
system.switch_cpus.commit.op_class_0::SimdFloatDiv      3783412      0.36%     60.36% # Class of committed instruction
system.switch_cpus.commit.op_class_0::SimdFloatMisc     51037557      4.89%     65.26% # Class of committed instruction
system.switch_cpus.commit.op_class_0::SimdFloatMult     15111126      1.45%     66.70% # Class of committed instruction
system.switch_cpus.commit.op_class_0::SimdFloatMultAcc     41075545      3.94%     70.64% # Class of committed instruction
system.switch_cpus.commit.op_class_0::SimdFloatSqrt            0      0.00%     70.64% # Class of committed instruction
system.switch_cpus.commit.op_class_0::MemRead    123080499     11.80%     82.44% # Class of committed instruction
system.switch_cpus.commit.op_class_0::MemWrite     22037957      2.11%     84.55% # Class of committed instruction
system.switch_cpus.commit.op_class_0::FloatMemRead    136729309     13.11%     97.66% # Class of committed instruction
system.switch_cpus.commit.op_class_0::FloatMemWrite     24424077      2.34%    100.00% # Class of committed instruction
system.switch_cpus.commit.op_class_0::IprAccess            0      0.00%    100.00% # Class of committed instruction
system.switch_cpus.commit.op_class_0::InstPrefetch            0      0.00%    100.00% # Class of committed instruction
system.switch_cpus.commit.op_class_0::total   1043214397                       # Class of committed instruction
system.switch_cpus.commit.bw_lim_events      66012114                       # number cycles where commit BW limit reached
system.switch_cpus.rob.rob_reads           2518428087                       # The number of ROB reads
system.switch_cpus.rob.rob_writes          2326249925                       # The number of ROB writes
system.switch_cpus.timesIdled                   18197                       # Number of times that the entire CPU went into an idle state and unscheduled itself
system.switch_cpus.idleCycles                 1260518                       # Total number of cycles that the CPU has spent unscheduled due to idling
system.switch_cpus.committedInsts          1000000003                       # Number of Instructions Simulated
system.switch_cpus.committedOps            1043214397                       # Number of Ops (including micro ops) Simulated
system.switch_cpus.cpi                       1.449306                       # CPI: Cycles Per Instruction
system.switch_cpus.cpi_total                 1.449306                       # CPI: Total CPI of All Threads
system.switch_cpus.ipc                       0.689985                       # IPC: Instructions Per Cycle
system.switch_cpus.ipc_total                 0.689985                       # IPC: Total IPC of All Threads
system.switch_cpus.int_regfile_reads        967293070                       # number of integer regfile reads
system.switch_cpus.int_regfile_writes       513179254                       # number of integer regfile writes
system.switch_cpus.fp_regfile_reads         593531818                       # number of floating regfile reads
system.switch_cpus.fp_regfile_writes        449739845                       # number of floating regfile writes
system.switch_cpus.cc_regfile_reads        4176540600                       # number of cc regfile reads
system.switch_cpus.cc_regfile_writes       1063254288                       # number of cc regfile writes
system.switch_cpus.misc_regfile_reads      2795605779                       # number of misc regfile reads
system.switch_cpus.misc_regfile_writes      116339431                       # number of misc regfile writes
system.tol2bus.snoop_filter.tot_requests     55302894                       # Total number of requests made to the snoop filter.
system.tol2bus.snoop_filter.hit_single_requests     27651401                       # Number of requests hitting in the snoop filter with a single holder of the requested data.
system.tol2bus.snoop_filter.hit_multi_requests         5854                       # Number of requests hitting in the snoop filter with multiple (>1) holders of the requested data.
system.tol2bus.snoop_filter.tot_snoops         665035                       # Total number of snoops made to the snoop filter.
system.tol2bus.snoop_filter.hit_single_snoops       665035                       # Number of snoops hitting in the snoop filter with a single holder of the requested data.
system.tol2bus.snoop_filter.hit_multi_snoops            0                       # Number of snoops hitting in the snoop filter with multiple (>1) holders of the requested data.
system.tol2bus.pwrStateResidencyTicks::UNDEFINED 1354415913500                       # Cumulative time (in ticks) in various power states
system.tol2bus.trans_dist::ReadResp          25620742                       # Transaction distribution
system.tol2bus.trans_dist::WritebackDirty     12397093                       # Transaction distribution
system.tol2bus.trans_dist::WritebackClean     19208867                       # Transaction distribution
system.tol2bus.trans_dist::CleanEvict        18155759                       # Transaction distribution
system.tol2bus.trans_dist::HardPFReq         22406798                       # Transaction distribution
system.tol2bus.trans_dist::HardPFResp             156                       # Transaction distribution
system.tol2bus.trans_dist::UpgradeReq              17                       # Transaction distribution
system.tol2bus.trans_dist::SCUpgradeReq             1                       # Transaction distribution
system.tol2bus.trans_dist::UpgradeResp             18                       # Transaction distribution
system.tol2bus.trans_dist::ReadExReq          2030355                       # Transaction distribution
system.tol2bus.trans_dist::ReadExResp         2030355                       # Transaction distribution
system.tol2bus.trans_dist::ReadCleanReq         31498                       # Transaction distribution
system.tol2bus.trans_dist::ReadSharedReq     25589244                       # Transaction distribution
system.tol2bus.pkt_count_system.cpu.icache.mem_side::system.l2.cpu_side        94465                       # Packet count per connected master and slave (bytes)
system.tol2bus.pkt_count_system.cpu.dcache.mem_side::system.l2.cpu_side     82858989                       # Packet count per connected master and slave (bytes)
system.tol2bus.pkt_count::total              82953454                       # Packet count per connected master and slave (bytes)
system.tol2bus.pkt_size_system.cpu.icache.mem_side::system.l2.cpu_side      4029888                       # Cumulative packet size per connected master and slave (bytes)
system.tol2bus.pkt_size_system.cpu.dcache.mem_side::system.l2.cpu_side   3535318656                       # Cumulative packet size per connected master and slave (bytes)
system.tol2bus.pkt_size::total             3539348544                       # Cumulative packet size per connected master and slave (bytes)
system.tol2bus.snoops                        44517605                       # Total snoops (count)
system.tol2bus.snoopTraffic                 253123072                       # Total snoop traffic (bytes)
system.tol2bus.snoop_fanout::samples         72168944                       # Request fanout histogram
system.tol2bus.snoop_fanout::mean            0.009296                       # Request fanout histogram
system.tol2bus.snoop_fanout::stdev           0.095967                       # Request fanout histogram
system.tol2bus.snoop_fanout::underflows             0      0.00%      0.00% # Request fanout histogram
system.tol2bus.snoop_fanout::0               71498059     99.07%     99.07% # Request fanout histogram
system.tol2bus.snoop_fanout::1                 670885      0.93%    100.00% # Request fanout histogram
system.tol2bus.snoop_fanout::2                      0      0.00%    100.00% # Request fanout histogram
system.tol2bus.snoop_fanout::3                      0      0.00%    100.00% # Request fanout histogram
system.tol2bus.snoop_fanout::4                      0      0.00%    100.00% # Request fanout histogram
system.tol2bus.snoop_fanout::overflows              0      0.00%    100.00% # Request fanout histogram
system.tol2bus.snoop_fanout::min_value              0                       # Request fanout histogram
system.tol2bus.snoop_fanout::max_value              1                       # Request fanout histogram
system.tol2bus.snoop_fanout::total           72168944                       # Request fanout histogram
system.tol2bus.reqLayer0.occupancy        55302866182                       # Layer occupancy (ticks)
system.tol2bus.reqLayer0.utilization              7.6                       # Layer utilization (%)
system.tol2bus.snoopLayer0.occupancy           234513                       # Layer occupancy (ticks)
system.tol2bus.snoopLayer0.utilization            0.0                       # Layer utilization (%)
system.tol2bus.respLayer0.occupancy          47387220                       # Layer occupancy (ticks)
system.tol2bus.respLayer0.utilization             0.0                       # Layer utilization (%)
system.tol2bus.respLayer1.occupancy       41429436699                       # Layer occupancy (ticks)
system.tol2bus.respLayer1.utilization             5.7                       # Layer utilization (%)

---------- End Simulation Statistics   ----------
