gem5 Simulator System.  http://gem5.org
gem5 is copyrighted software; use the --copyright option for details.

gem5 compiled Dec  8 2017 12:42:00
gem5 started Dec  8 2017 15:23:51
gem5 executing on hellokitty-6, pid 378030
command line: /research/rraju2/ece752/gem5/build/ARM/gem5.opt /research/rraju2/ece752/gem5/configs/example/se.py --cpu-type=ex5_big --fast-forward=1000000000 --caches --l2cache --mem-size=2GB --cpu-clock=2GHz --sys-clock=2GHz --maxinsts=1000000000 --cmd=465.tonto --output=465.tonto.stdout --errout=465.tonto.stderr

info: Standard input is not a terminal, disabling listeners.
Global frequency set at 1000000000000 ticks per second
Switch at instruction count:1000000000
Switched CPUS @ tick 661434253000
switching cpus
**** REAL SIMULATION ****
Exiting @ tick 1106320496000 because a thread reached the max instruction count
