gem5 Simulator System.  http://gem5.org
gem5 is copyrighted software; use the --copyright option for details.

gem5 compiled Dec  5 2017 11:40:29
gem5 started Dec  5 2017 11:45:21
gem5 executing on iris-38, pid 297885
command line: /research/rraju2/ece752/gem5/build/ARM/gem5.opt /research/rraju2/ece752/gem5/configs/example/se.py --cpu-type=O3_ARM_v7a_3 --caches --l2cache --mem-size=2GB --cpu-clock=2GHz --sys-clock=2GHz --maxinsts=1000000000 --fast-forward=1000000000 --cmd=459.GemsFDTD --output=459.GemsFDTD.stdout --errout=459.GemsFDTD.stderr

info: Standard input is not a terminal, disabling listeners.
Global frequency set at 1000000000000 ticks per second
Switch at instruction count:1000000000
Switched CPUS @ tick 703562340000
switching cpus
**** REAL SIMULATION ****
Exiting @ tick 1056651922500 because a thread reached the max instruction count
