
---------- Begin Simulation Statistics ----------
sim_seconds                                  0.793641                       # Number of seconds simulated
sim_ticks                                793641349500                       # Number of ticks simulated
final_tick                               1463631252500                       # Number of ticks from beginning of simulation (restored from checkpoints and never reset)
sim_freq                                 1000000000000                       # Frequency of simulated ticks
host_inst_rate                                 122788                       # Simulator instruction rate (inst/s)
host_op_rate                                   124156                       # Simulator op (including micro ops) rate (op/s)
host_tick_rate                               48724931                       # Simulator tick rate (ticks/s)
host_mem_usage                                3129132                       # Number of bytes of host memory used
host_seconds                                 16288.20                       # Real time elapsed on the host
sim_insts                                  2000000001                       # Number of instructions simulated
sim_ops                                    2022270393                       # Number of ops (including micro ops) simulated
system.voltage_domain.voltage                       1                       # Voltage in Volts
system.clk_domain.clock                           500                       # Clock period in ticks
system.mem_ctrls.pwrStateResidencyTicks::UNDEFINED 1463631252500                       # Cumulative time (in ticks) in various power states
system.mem_ctrls.bytes_read::switch_cpus.inst         1856                       # Number of bytes read from this memory
system.mem_ctrls.bytes_read::switch_cpus.data   1018962880                       # Number of bytes read from this memory
system.mem_ctrls.bytes_read::total         1018964736                       # Number of bytes read from this memory
system.mem_ctrls.bytes_inst_read::switch_cpus.inst         1856                       # Number of instructions bytes read from this memory
system.mem_ctrls.bytes_inst_read::total          1856                       # Number of instructions bytes read from this memory
system.mem_ctrls.bytes_written::writebacks     81317376                       # Number of bytes written to this memory
system.mem_ctrls.bytes_written::total        81317376                       # Number of bytes written to this memory
system.mem_ctrls.num_reads::switch_cpus.inst           29                       # Number of read requests responded to by this memory
system.mem_ctrls.num_reads::switch_cpus.data     15921295                       # Number of read requests responded to by this memory
system.mem_ctrls.num_reads::total            15921324                       # Number of read requests responded to by this memory
system.mem_ctrls.num_writes::writebacks       1270584                       # Number of write requests responded to by this memory
system.mem_ctrls.num_writes::total            1270584                       # Number of write requests responded to by this memory
system.mem_ctrls.bw_read::switch_cpus.inst         2339                       # Total read bandwidth from this memory (bytes/s)
system.mem_ctrls.bw_read::switch_cpus.data   1283908507                       # Total read bandwidth from this memory (bytes/s)
system.mem_ctrls.bw_read::total            1283910845                       # Total read bandwidth from this memory (bytes/s)
system.mem_ctrls.bw_inst_read::switch_cpus.inst         2339                       # Instruction read bandwidth from this memory (bytes/s)
system.mem_ctrls.bw_inst_read::total             2339                       # Instruction read bandwidth from this memory (bytes/s)
system.mem_ctrls.bw_write::writebacks       102461113                       # Write bandwidth from this memory (bytes/s)
system.mem_ctrls.bw_write::total            102461113                       # Write bandwidth from this memory (bytes/s)
system.mem_ctrls.bw_total::writebacks       102461113                       # Total bandwidth to/from this memory (bytes/s)
system.mem_ctrls.bw_total::switch_cpus.inst         2339                       # Total bandwidth to/from this memory (bytes/s)
system.mem_ctrls.bw_total::switch_cpus.data   1283908507                       # Total bandwidth to/from this memory (bytes/s)
system.mem_ctrls.bw_total::total           1386371958                       # Total bandwidth to/from this memory (bytes/s)
system.mem_ctrls.readReqs                    15921325                       # Number of read requests accepted
system.mem_ctrls.writeReqs                    1270584                       # Number of write requests accepted
system.mem_ctrls.readBursts                  15921325                       # Number of DRAM read bursts, including those serviced by the write queue
system.mem_ctrls.writeBursts                  1270584                       # Number of DRAM write bursts, including those merged in the write queue
system.mem_ctrls.bytesReadDRAM             1018956224                       # Total number of bytes read from DRAM
system.mem_ctrls.bytesReadWrQ                    8576                       # Total number of bytes read from write queue
system.mem_ctrls.bytesWritten                81315712                       # Total number of bytes written to DRAM
system.mem_ctrls.bytesReadSys              1018964800                       # Total read bytes from the system interface side
system.mem_ctrls.bytesWrittenSys             81317376                       # Total written bytes from the system interface side
system.mem_ctrls.servicedByWrQ                    134                       # Number of DRAM read bursts serviced by the write queue
system.mem_ctrls.mergedWrBursts                     0                       # Number of DRAM write bursts merged with an existing one
system.mem_ctrls.neitherReadNorWriteReqs            0                       # Number of requests that are neither read nor write
system.mem_ctrls.perBankRdBursts::0            995118                       # Per bank write bursts
system.mem_ctrls.perBankRdBursts::1            994836                       # Per bank write bursts
system.mem_ctrls.perBankRdBursts::2            994638                       # Per bank write bursts
system.mem_ctrls.perBankRdBursts::3            994901                       # Per bank write bursts
system.mem_ctrls.perBankRdBursts::4            994051                       # Per bank write bursts
system.mem_ctrls.perBankRdBursts::5            994924                       # Per bank write bursts
system.mem_ctrls.perBankRdBursts::6            994742                       # Per bank write bursts
system.mem_ctrls.perBankRdBursts::7            995719                       # Per bank write bursts
system.mem_ctrls.perBankRdBursts::8            995997                       # Per bank write bursts
system.mem_ctrls.perBankRdBursts::9            995803                       # Per bank write bursts
system.mem_ctrls.perBankRdBursts::10           996583                       # Per bank write bursts
system.mem_ctrls.perBankRdBursts::11           995441                       # Per bank write bursts
system.mem_ctrls.perBankRdBursts::12           994898                       # Per bank write bursts
system.mem_ctrls.perBankRdBursts::13           994112                       # Per bank write bursts
system.mem_ctrls.perBankRdBursts::14           994329                       # Per bank write bursts
system.mem_ctrls.perBankRdBursts::15           995099                       # Per bank write bursts
system.mem_ctrls.perBankWrBursts::0             79104                       # Per bank write bursts
system.mem_ctrls.perBankWrBursts::1             79120                       # Per bank write bursts
system.mem_ctrls.perBankWrBursts::2             79243                       # Per bank write bursts
system.mem_ctrls.perBankWrBursts::3             79360                       # Per bank write bursts
system.mem_ctrls.perBankWrBursts::4             79253                       # Per bank write bursts
system.mem_ctrls.perBankWrBursts::5             79616                       # Per bank write bursts
system.mem_ctrls.perBankWrBursts::6             79530                       # Per bank write bursts
system.mem_ctrls.perBankWrBursts::7             79744                       # Per bank write bursts
system.mem_ctrls.perBankWrBursts::8             79744                       # Per bank write bursts
system.mem_ctrls.perBankWrBursts::9             79679                       # Per bank write bursts
system.mem_ctrls.perBankWrBursts::10            79872                       # Per bank write bursts
system.mem_ctrls.perBankWrBursts::11            79551                       # Per bank write bursts
system.mem_ctrls.perBankWrBursts::12            79517                       # Per bank write bursts
system.mem_ctrls.perBankWrBursts::13            79273                       # Per bank write bursts
system.mem_ctrls.perBankWrBursts::14            78976                       # Per bank write bursts
system.mem_ctrls.perBankWrBursts::15            78976                       # Per bank write bursts
system.mem_ctrls.numRdRetry                         0                       # Number of times read queue was full causing retry
system.mem_ctrls.numWrRetry                         0                       # Number of times write queue was full causing retry
system.mem_ctrls.totGap                  793641245500                       # Total gap between requests
system.mem_ctrls.readPktSize::0                     0                       # Read request sizes (log2)
system.mem_ctrls.readPktSize::1                     0                       # Read request sizes (log2)
system.mem_ctrls.readPktSize::2                     0                       # Read request sizes (log2)
system.mem_ctrls.readPktSize::3                     0                       # Read request sizes (log2)
system.mem_ctrls.readPktSize::4                     0                       # Read request sizes (log2)
system.mem_ctrls.readPktSize::5                     0                       # Read request sizes (log2)
system.mem_ctrls.readPktSize::6              15921325                       # Read request sizes (log2)
system.mem_ctrls.writePktSize::0                    0                       # Write request sizes (log2)
system.mem_ctrls.writePktSize::1                    0                       # Write request sizes (log2)
system.mem_ctrls.writePktSize::2                    0                       # Write request sizes (log2)
system.mem_ctrls.writePktSize::3                    0                       # Write request sizes (log2)
system.mem_ctrls.writePktSize::4                    0                       # Write request sizes (log2)
system.mem_ctrls.writePktSize::5                    0                       # Write request sizes (log2)
system.mem_ctrls.writePktSize::6              1270584                       # Write request sizes (log2)
system.mem_ctrls.rdQLenPdf::0                 5173831                       # What read queue length does an incoming req see
system.mem_ctrls.rdQLenPdf::1                 4721609                       # What read queue length does an incoming req see
system.mem_ctrls.rdQLenPdf::2                 3642198                       # What read queue length does an incoming req see
system.mem_ctrls.rdQLenPdf::3                 2383551                       # What read queue length does an incoming req see
system.mem_ctrls.rdQLenPdf::4                       2                       # What read queue length does an incoming req see
system.mem_ctrls.rdQLenPdf::5                       0                       # What read queue length does an incoming req see
system.mem_ctrls.rdQLenPdf::6                       0                       # What read queue length does an incoming req see
system.mem_ctrls.rdQLenPdf::7                       0                       # What read queue length does an incoming req see
system.mem_ctrls.rdQLenPdf::8                       0                       # What read queue length does an incoming req see
system.mem_ctrls.rdQLenPdf::9                       0                       # What read queue length does an incoming req see
system.mem_ctrls.rdQLenPdf::10                      0                       # What read queue length does an incoming req see
system.mem_ctrls.rdQLenPdf::11                      0                       # What read queue length does an incoming req see
system.mem_ctrls.rdQLenPdf::12                      0                       # What read queue length does an incoming req see
system.mem_ctrls.rdQLenPdf::13                      0                       # What read queue length does an incoming req see
system.mem_ctrls.rdQLenPdf::14                      0                       # What read queue length does an incoming req see
system.mem_ctrls.rdQLenPdf::15                      0                       # What read queue length does an incoming req see
system.mem_ctrls.rdQLenPdf::16                      0                       # What read queue length does an incoming req see
system.mem_ctrls.rdQLenPdf::17                      0                       # What read queue length does an incoming req see
system.mem_ctrls.rdQLenPdf::18                      0                       # What read queue length does an incoming req see
system.mem_ctrls.rdQLenPdf::19                      0                       # What read queue length does an incoming req see
system.mem_ctrls.rdQLenPdf::20                      0                       # What read queue length does an incoming req see
system.mem_ctrls.rdQLenPdf::21                      0                       # What read queue length does an incoming req see
system.mem_ctrls.rdQLenPdf::22                      0                       # What read queue length does an incoming req see
system.mem_ctrls.rdQLenPdf::23                      0                       # What read queue length does an incoming req see
system.mem_ctrls.rdQLenPdf::24                      0                       # What read queue length does an incoming req see
system.mem_ctrls.rdQLenPdf::25                      0                       # What read queue length does an incoming req see
system.mem_ctrls.rdQLenPdf::26                      0                       # What read queue length does an incoming req see
system.mem_ctrls.rdQLenPdf::27                      0                       # What read queue length does an incoming req see
system.mem_ctrls.rdQLenPdf::28                      0                       # What read queue length does an incoming req see
system.mem_ctrls.rdQLenPdf::29                      0                       # What read queue length does an incoming req see
system.mem_ctrls.rdQLenPdf::30                      0                       # What read queue length does an incoming req see
system.mem_ctrls.rdQLenPdf::31                      0                       # What read queue length does an incoming req see
system.mem_ctrls.wrQLenPdf::0                       1                       # What write queue length does an incoming req see
system.mem_ctrls.wrQLenPdf::1                       1                       # What write queue length does an incoming req see
system.mem_ctrls.wrQLenPdf::2                       1                       # What write queue length does an incoming req see
system.mem_ctrls.wrQLenPdf::3                       1                       # What write queue length does an incoming req see
system.mem_ctrls.wrQLenPdf::4                       1                       # What write queue length does an incoming req see
system.mem_ctrls.wrQLenPdf::5                       1                       # What write queue length does an incoming req see
system.mem_ctrls.wrQLenPdf::6                       1                       # What write queue length does an incoming req see
system.mem_ctrls.wrQLenPdf::7                       1                       # What write queue length does an incoming req see
system.mem_ctrls.wrQLenPdf::8                       1                       # What write queue length does an incoming req see
system.mem_ctrls.wrQLenPdf::9                       1                       # What write queue length does an incoming req see
system.mem_ctrls.wrQLenPdf::10                      1                       # What write queue length does an incoming req see
system.mem_ctrls.wrQLenPdf::11                      1                       # What write queue length does an incoming req see
system.mem_ctrls.wrQLenPdf::12                      1                       # What write queue length does an incoming req see
system.mem_ctrls.wrQLenPdf::13                      1                       # What write queue length does an incoming req see
system.mem_ctrls.wrQLenPdf::14                      1                       # What write queue length does an incoming req see
system.mem_ctrls.wrQLenPdf::15                  13547                       # What write queue length does an incoming req see
system.mem_ctrls.wrQLenPdf::16                  14769                       # What write queue length does an incoming req see
system.mem_ctrls.wrQLenPdf::17                  64845                       # What write queue length does an incoming req see
system.mem_ctrls.wrQLenPdf::18                  72507                       # What write queue length does an incoming req see
system.mem_ctrls.wrQLenPdf::19                  76716                       # What write queue length does an incoming req see
system.mem_ctrls.wrQLenPdf::20                  76779                       # What write queue length does an incoming req see
system.mem_ctrls.wrQLenPdf::21                  76906                       # What write queue length does an incoming req see
system.mem_ctrls.wrQLenPdf::22                  76704                       # What write queue length does an incoming req see
system.mem_ctrls.wrQLenPdf::23                  79201                       # What write queue length does an incoming req see
system.mem_ctrls.wrQLenPdf::24                  82203                       # What write queue length does an incoming req see
system.mem_ctrls.wrQLenPdf::25                  76824                       # What write queue length does an incoming req see
system.mem_ctrls.wrQLenPdf::26                  76931                       # What write queue length does an incoming req see
system.mem_ctrls.wrQLenPdf::27                  77699                       # What write queue length does an incoming req see
system.mem_ctrls.wrQLenPdf::28                  77425                       # What write queue length does an incoming req see
system.mem_ctrls.wrQLenPdf::29                  77183                       # What write queue length does an incoming req see
system.mem_ctrls.wrQLenPdf::30                  78015                       # What write queue length does an incoming req see
system.mem_ctrls.wrQLenPdf::31                  83913                       # What write queue length does an incoming req see
system.mem_ctrls.wrQLenPdf::32                  87990                       # What write queue length does an incoming req see
system.mem_ctrls.wrQLenPdf::33                    384                       # What write queue length does an incoming req see
system.mem_ctrls.wrQLenPdf::34                     28                       # What write queue length does an incoming req see
system.mem_ctrls.wrQLenPdf::35                      0                       # What write queue length does an incoming req see
system.mem_ctrls.wrQLenPdf::36                      0                       # What write queue length does an incoming req see
system.mem_ctrls.wrQLenPdf::37                      0                       # What write queue length does an incoming req see
system.mem_ctrls.wrQLenPdf::38                      0                       # What write queue length does an incoming req see
system.mem_ctrls.wrQLenPdf::39                      0                       # What write queue length does an incoming req see
system.mem_ctrls.wrQLenPdf::40                      0                       # What write queue length does an incoming req see
system.mem_ctrls.wrQLenPdf::41                      0                       # What write queue length does an incoming req see
system.mem_ctrls.wrQLenPdf::42                      0                       # What write queue length does an incoming req see
system.mem_ctrls.wrQLenPdf::43                      0                       # What write queue length does an incoming req see
system.mem_ctrls.wrQLenPdf::44                      0                       # What write queue length does an incoming req see
system.mem_ctrls.wrQLenPdf::45                      0                       # What write queue length does an incoming req see
system.mem_ctrls.wrQLenPdf::46                      0                       # What write queue length does an incoming req see
system.mem_ctrls.wrQLenPdf::47                      0                       # What write queue length does an incoming req see
system.mem_ctrls.wrQLenPdf::48                      0                       # What write queue length does an incoming req see
system.mem_ctrls.wrQLenPdf::49                      0                       # What write queue length does an incoming req see
system.mem_ctrls.wrQLenPdf::50                      0                       # What write queue length does an incoming req see
system.mem_ctrls.wrQLenPdf::51                      0                       # What write queue length does an incoming req see
system.mem_ctrls.wrQLenPdf::52                      0                       # What write queue length does an incoming req see
system.mem_ctrls.wrQLenPdf::53                      0                       # What write queue length does an incoming req see
system.mem_ctrls.wrQLenPdf::54                      0                       # What write queue length does an incoming req see
system.mem_ctrls.wrQLenPdf::55                      0                       # What write queue length does an incoming req see
system.mem_ctrls.wrQLenPdf::56                      0                       # What write queue length does an incoming req see
system.mem_ctrls.wrQLenPdf::57                      0                       # What write queue length does an incoming req see
system.mem_ctrls.wrQLenPdf::58                      0                       # What write queue length does an incoming req see
system.mem_ctrls.wrQLenPdf::59                      0                       # What write queue length does an incoming req see
system.mem_ctrls.wrQLenPdf::60                      0                       # What write queue length does an incoming req see
system.mem_ctrls.wrQLenPdf::61                      0                       # What write queue length does an incoming req see
system.mem_ctrls.wrQLenPdf::62                      0                       # What write queue length does an incoming req see
system.mem_ctrls.wrQLenPdf::63                      0                       # What write queue length does an incoming req see
system.mem_ctrls.bytesPerActivate::samples      2907542                       # Bytes accessed per row activation
system.mem_ctrls.bytesPerActivate::mean    378.419501                       # Bytes accessed per row activation
system.mem_ctrls.bytesPerActivate::gmean   239.446179                       # Bytes accessed per row activation
system.mem_ctrls.bytesPerActivate::stdev   350.023526                       # Bytes accessed per row activation
system.mem_ctrls.bytesPerActivate::0-127       801280     27.56%     27.56% # Bytes accessed per row activation
system.mem_ctrls.bytesPerActivate::128-255       396117     13.62%     41.18% # Bytes accessed per row activation
system.mem_ctrls.bytesPerActivate::256-383       852942     29.34%     70.52% # Bytes accessed per row activation
system.mem_ctrls.bytesPerActivate::384-511       147385      5.07%     75.59% # Bytes accessed per row activation
system.mem_ctrls.bytesPerActivate::512-639        47190      1.62%     77.21% # Bytes accessed per row activation
system.mem_ctrls.bytesPerActivate::640-767        45092      1.55%     78.76% # Bytes accessed per row activation
system.mem_ctrls.bytesPerActivate::768-895        31749      1.09%     79.85% # Bytes accessed per row activation
system.mem_ctrls.bytesPerActivate::896-1023        27412      0.94%     80.80% # Bytes accessed per row activation
system.mem_ctrls.bytesPerActivate::1024-1151       558375     19.20%    100.00% # Bytes accessed per row activation
system.mem_ctrls.bytesPerActivate::total      2907542                       # Bytes accessed per row activation
system.mem_ctrls.rdPerTurnAround::samples        76459                       # Reads before turning the bus around for writes
system.mem_ctrls.rdPerTurnAround::mean     208.219281                       # Reads before turning the bus around for writes
system.mem_ctrls.rdPerTurnAround::gmean     54.161125                       # Reads before turning the bus around for writes
system.mem_ctrls.rdPerTurnAround::stdev   1651.470897                       # Reads before turning the bus around for writes
system.mem_ctrls.rdPerTurnAround::0-8191        76452     99.99%     99.99% # Reads before turning the bus around for writes
system.mem_ctrls.rdPerTurnAround::8192-16383            2      0.00%     99.99% # Reads before turning the bus around for writes
system.mem_ctrls.rdPerTurnAround::163840-172031            4      0.01%    100.00% # Reads before turning the bus around for writes
system.mem_ctrls.rdPerTurnAround::245760-253951            1      0.00%    100.00% # Reads before turning the bus around for writes
system.mem_ctrls.rdPerTurnAround::total         76459                       # Reads before turning the bus around for writes
system.mem_ctrls.wrPerTurnAround::samples        76459                       # Writes before turning the bus around for reads
system.mem_ctrls.wrPerTurnAround::mean      16.617507                       # Writes before turning the bus around for reads
system.mem_ctrls.wrPerTurnAround::gmean     16.569524                       # Writes before turning the bus around for reads
system.mem_ctrls.wrPerTurnAround::stdev      1.322290                       # Writes before turning the bus around for reads
system.mem_ctrls.wrPerTurnAround::16            61252     80.11%     80.11% # Writes before turning the bus around for reads
system.mem_ctrls.wrPerTurnAround::17              736      0.96%     81.07% # Writes before turning the bus around for reads
system.mem_ctrls.wrPerTurnAround::18             5152      6.74%     87.81% # Writes before turning the bus around for reads
system.mem_ctrls.wrPerTurnAround::19             1147      1.50%     89.31% # Writes before turning the bus around for reads
system.mem_ctrls.wrPerTurnAround::20             8133     10.64%     99.95% # Writes before turning the bus around for reads
system.mem_ctrls.wrPerTurnAround::21               34      0.04%     99.99% # Writes before turning the bus around for reads
system.mem_ctrls.wrPerTurnAround::22                4      0.01%    100.00% # Writes before turning the bus around for reads
system.mem_ctrls.wrPerTurnAround::23                1      0.00%    100.00% # Writes before turning the bus around for reads
system.mem_ctrls.wrPerTurnAround::total         76459                       # Writes before turning the bus around for reads
system.mem_ctrls.totQLat                 311213407750                       # Total ticks spent queuing
system.mem_ctrls.totMemAccLat            609735739000                       # Total ticks spent from burst creation until serviced by the DRAM
system.mem_ctrls.totBusLat                79605955000                       # Total ticks spent in databus transfers
system.mem_ctrls.avgQLat                     19547.12                       # Average queueing delay per DRAM burst
system.mem_ctrls.avgBusLat                    5000.00                       # Average bus latency per DRAM burst
system.mem_ctrls.avgMemAccLat                38297.12                       # Average memory access latency per DRAM burst
system.mem_ctrls.avgRdBW                      1283.90                       # Average DRAM read bandwidth in MiByte/s
system.mem_ctrls.avgWrBW                       102.46                       # Average achieved write bandwidth in MiByte/s
system.mem_ctrls.avgRdBWSys                   1283.91                       # Average system read bandwidth in MiByte/s
system.mem_ctrls.avgWrBWSys                    102.46                       # Average system write bandwidth in MiByte/s
system.mem_ctrls.peakBW                      12800.00                       # Theoretical peak bandwidth in MiByte/s
system.mem_ctrls.busUtil                        10.83                       # Data bus utilization in percentage
system.mem_ctrls.busUtilRead                    10.03                       # Data bus utilization in percentage for reads
system.mem_ctrls.busUtilWrite                    0.80                       # Data bus utilization in percentage for writes
system.mem_ctrls.avgRdQLen                       2.65                       # Average read queue length when enqueuing
system.mem_ctrls.avgWrQLen                      25.48                       # Average write queue length when enqueuing
system.mem_ctrls.readRowHits                 13142270                       # Number of row buffer hits during reads
system.mem_ctrls.writeRowHits                 1141929                       # Number of row buffer hits during writes
system.mem_ctrls.readRowHitRate                 82.55                       # Row buffer hit rate for reads
system.mem_ctrls.writeRowHitRate                89.87                       # Row buffer hit rate for writes
system.mem_ctrls.avgGap                      46163.65                       # Average gap between requests
system.mem_ctrls.pageHitRate                    83.09                       # Row buffer hit rate, read and write combined
system.mem_ctrls_0.actEnergy              10369414860                       # Energy for activate commands per rank (pJ)
system.mem_ctrls_0.preEnergy               5511463320                       # Energy for precharge commands per rank (pJ)
system.mem_ctrls_0.readEnergy             56826753060                       # Energy for read commands per rank (pJ)
system.mem_ctrls_0.writeEnergy             3314543400                       # Energy for write commands per rank (pJ)
system.mem_ctrls_0.refreshEnergy         61772549280.000015                       # Energy for refresh commands per rank (pJ)
system.mem_ctrls_0.actBackEnergy         104694021540                       # Energy for active background per rank (pJ)
system.mem_ctrls_0.preBackEnergy           1479304320                       # Energy for precharge background per rank (pJ)
system.mem_ctrls_0.actPowerDownEnergy    245390449770                       # Energy for active power-down per rank (pJ)
system.mem_ctrls_0.prePowerDownEnergy      3094163040                       # Energy for precharge power-down per rank (pJ)
system.mem_ctrls_0.selfRefreshEnergy       3581332740                       # Energy for self refresh per rank (pJ)
system.mem_ctrls_0.totalEnergy           496035491130                       # Total energy per rank (pJ)
system.mem_ctrls_0.averagePower            625.012157                       # Core power per rank (mW)
system.mem_ctrls_0.totalIdleTime         560200426750                       # Total Idle time Per DRAM Rank
system.mem_ctrls_0.memoryStateTime::IDLE    674204500                       # Time in different power states
system.mem_ctrls_0.memoryStateTime::REF   26133982000                       # Time in different power states
system.mem_ctrls_0.memoryStateTime::SREF  13998866250                       # Time in different power states
system.mem_ctrls_0.memoryStateTime::PRE_PDN   8055508250                       # Time in different power states
system.mem_ctrls_0.memoryStateTime::ACT  206632691000                       # Time in different power states
system.mem_ctrls_0.memoryStateTime::ACT_PDN 538146097500                       # Time in different power states
system.mem_ctrls_1.actEnergy              10390492140                       # Energy for activate commands per rank (pJ)
system.mem_ctrls_1.preEnergy               5522658570                       # Energy for precharge commands per rank (pJ)
system.mem_ctrls_1.readEnergy             56850543540                       # Energy for read commands per rank (pJ)
system.mem_ctrls_1.writeEnergy             3317769360                       # Energy for write commands per rank (pJ)
system.mem_ctrls_1.refreshEnergy         61764558960.000015                       # Energy for refresh commands per rank (pJ)
system.mem_ctrls_1.actBackEnergy         105142914210                       # Energy for active background per rank (pJ)
system.mem_ctrls_1.preBackEnergy           1484241600                       # Energy for precharge background per rank (pJ)
system.mem_ctrls_1.actPowerDownEnergy    244931509140                       # Energy for active power-down per rank (pJ)
system.mem_ctrls_1.prePowerDownEnergy      3100482720                       # Energy for precharge power-down per rank (pJ)
system.mem_ctrls_1.selfRefreshEnergy       3571214325                       # Energy for self refresh per rank (pJ)
system.mem_ctrls_1.totalEnergy           496077580095                       # Total energy per rank (pJ)
system.mem_ctrls_1.averagePower            625.065190                       # Core power per rank (mW)
system.mem_ctrls_1.totalIdleTime         559175236250                       # Total Idle time Per DRAM Rank
system.mem_ctrls_1.memoryStateTime::IDLE    695439250                       # Time in different power states
system.mem_ctrls_1.memoryStateTime::REF   26130590000                       # Time in different power states
system.mem_ctrls_1.memoryStateTime::SREF  13992240750                       # Time in different power states
system.mem_ctrls_1.memoryStateTime::PRE_PDN   8071754500                       # Time in different power states
system.mem_ctrls_1.memoryStateTime::ACT  207640084000                       # Time in different power states
system.mem_ctrls_1.memoryStateTime::ACT_PDN 537111241000                       # Time in different power states
system.pwrStateResidencyTicks::UNDEFINED 1463631252500                       # Cumulative time (in ticks) in various power states
system.cpu_voltage_domain.voltage                   1                       # Voltage in Volts
system.cpu_clk_domain.clock                       500                       # Clock period in ticks
system.cpu.dstage2_mmu.stage2_tlb.walker.pwrStateResidencyTicks::UNDEFINED 1463631252500                       # Cumulative time (in ticks) in various power states
system.cpu.dstage2_mmu.stage2_tlb.walker.walks            0                       # Table walker walks requested
system.cpu.dstage2_mmu.stage2_tlb.walker.walkRequestOrigin_Requested::Data            0                       # Table walker requests started/completed, data/inst
system.cpu.dstage2_mmu.stage2_tlb.walker.walkRequestOrigin_Requested::Inst            0                       # Table walker requests started/completed, data/inst
system.cpu.dstage2_mmu.stage2_tlb.walker.walkRequestOrigin_Requested::total            0                       # Table walker requests started/completed, data/inst
system.cpu.dstage2_mmu.stage2_tlb.walker.walkRequestOrigin_Completed::Data            0                       # Table walker requests started/completed, data/inst
system.cpu.dstage2_mmu.stage2_tlb.walker.walkRequestOrigin_Completed::Inst            0                       # Table walker requests started/completed, data/inst
system.cpu.dstage2_mmu.stage2_tlb.walker.walkRequestOrigin_Completed::total            0                       # Table walker requests started/completed, data/inst
system.cpu.dstage2_mmu.stage2_tlb.walker.walkRequestOrigin::total            0                       # Table walker requests started/completed, data/inst
system.cpu.dstage2_mmu.stage2_tlb.inst_hits            0                       # ITB inst hits
system.cpu.dstage2_mmu.stage2_tlb.inst_misses            0                       # ITB inst misses
system.cpu.dstage2_mmu.stage2_tlb.read_hits            0                       # DTB read hits
system.cpu.dstage2_mmu.stage2_tlb.read_misses            0                       # DTB read misses
system.cpu.dstage2_mmu.stage2_tlb.write_hits            0                       # DTB write hits
system.cpu.dstage2_mmu.stage2_tlb.write_misses            0                       # DTB write misses
system.cpu.dstage2_mmu.stage2_tlb.flush_tlb            0                       # Number of times complete TLB was flushed
system.cpu.dstage2_mmu.stage2_tlb.flush_tlb_mva            0                       # Number of times TLB was flushed by MVA
system.cpu.dstage2_mmu.stage2_tlb.flush_tlb_mva_asid            0                       # Number of times TLB was flushed by MVA & ASID
system.cpu.dstage2_mmu.stage2_tlb.flush_tlb_asid            0                       # Number of times TLB was flushed by ASID
system.cpu.dstage2_mmu.stage2_tlb.flush_entries            0                       # Number of entries that have been flushed from TLB
system.cpu.dstage2_mmu.stage2_tlb.align_faults            0                       # Number of TLB faults due to alignment restrictions
system.cpu.dstage2_mmu.stage2_tlb.prefetch_faults            0                       # Number of TLB faults due to prefetch
system.cpu.dstage2_mmu.stage2_tlb.domain_faults            0                       # Number of TLB faults due to domain restrictions
system.cpu.dstage2_mmu.stage2_tlb.perms_faults            0                       # Number of TLB faults due to permissions restrictions
system.cpu.dstage2_mmu.stage2_tlb.read_accesses            0                       # DTB read accesses
system.cpu.dstage2_mmu.stage2_tlb.write_accesses            0                       # DTB write accesses
system.cpu.dstage2_mmu.stage2_tlb.inst_accesses            0                       # ITB inst accesses
system.cpu.dstage2_mmu.stage2_tlb.hits              0                       # DTB hits
system.cpu.dstage2_mmu.stage2_tlb.misses            0                       # DTB misses
system.cpu.dstage2_mmu.stage2_tlb.accesses            0                       # DTB accesses
system.cpu.dtb.walker.pwrStateResidencyTicks::UNDEFINED 1463631252500                       # Cumulative time (in ticks) in various power states
system.cpu.dtb.walker.walks                         0                       # Table walker walks requested
system.cpu.dtb.walker.walkRequestOrigin_Requested::Data            0                       # Table walker requests started/completed, data/inst
system.cpu.dtb.walker.walkRequestOrigin_Requested::Inst            0                       # Table walker requests started/completed, data/inst
system.cpu.dtb.walker.walkRequestOrigin_Requested::total            0                       # Table walker requests started/completed, data/inst
system.cpu.dtb.walker.walkRequestOrigin_Completed::Data            0                       # Table walker requests started/completed, data/inst
system.cpu.dtb.walker.walkRequestOrigin_Completed::Inst            0                       # Table walker requests started/completed, data/inst
system.cpu.dtb.walker.walkRequestOrigin_Completed::total            0                       # Table walker requests started/completed, data/inst
system.cpu.dtb.walker.walkRequestOrigin::total            0                       # Table walker requests started/completed, data/inst
system.cpu.dtb.inst_hits                            0                       # ITB inst hits
system.cpu.dtb.inst_misses                          0                       # ITB inst misses
system.cpu.dtb.read_hits                            0                       # DTB read hits
system.cpu.dtb.read_misses                          0                       # DTB read misses
system.cpu.dtb.write_hits                           0                       # DTB write hits
system.cpu.dtb.write_misses                         0                       # DTB write misses
system.cpu.dtb.flush_tlb                            0                       # Number of times complete TLB was flushed
system.cpu.dtb.flush_tlb_mva                        0                       # Number of times TLB was flushed by MVA
system.cpu.dtb.flush_tlb_mva_asid                   0                       # Number of times TLB was flushed by MVA & ASID
system.cpu.dtb.flush_tlb_asid                       0                       # Number of times TLB was flushed by ASID
system.cpu.dtb.flush_entries                        0                       # Number of entries that have been flushed from TLB
system.cpu.dtb.align_faults                         0                       # Number of TLB faults due to alignment restrictions
system.cpu.dtb.prefetch_faults                      0                       # Number of TLB faults due to prefetch
system.cpu.dtb.domain_faults                        0                       # Number of TLB faults due to domain restrictions
system.cpu.dtb.perms_faults                         0                       # Number of TLB faults due to permissions restrictions
system.cpu.dtb.read_accesses                        0                       # DTB read accesses
system.cpu.dtb.write_accesses                       0                       # DTB write accesses
system.cpu.dtb.inst_accesses                        0                       # ITB inst accesses
system.cpu.dtb.hits                                 0                       # DTB hits
system.cpu.dtb.misses                               0                       # DTB misses
system.cpu.dtb.accesses                             0                       # DTB accesses
system.cpu.istage2_mmu.stage2_tlb.walker.pwrStateResidencyTicks::UNDEFINED 1463631252500                       # Cumulative time (in ticks) in various power states
system.cpu.istage2_mmu.stage2_tlb.walker.walks            0                       # Table walker walks requested
system.cpu.istage2_mmu.stage2_tlb.walker.walkRequestOrigin_Requested::Data            0                       # Table walker requests started/completed, data/inst
system.cpu.istage2_mmu.stage2_tlb.walker.walkRequestOrigin_Requested::Inst            0                       # Table walker requests started/completed, data/inst
system.cpu.istage2_mmu.stage2_tlb.walker.walkRequestOrigin_Requested::total            0                       # Table walker requests started/completed, data/inst
system.cpu.istage2_mmu.stage2_tlb.walker.walkRequestOrigin_Completed::Data            0                       # Table walker requests started/completed, data/inst
system.cpu.istage2_mmu.stage2_tlb.walker.walkRequestOrigin_Completed::Inst            0                       # Table walker requests started/completed, data/inst
system.cpu.istage2_mmu.stage2_tlb.walker.walkRequestOrigin_Completed::total            0                       # Table walker requests started/completed, data/inst
system.cpu.istage2_mmu.stage2_tlb.walker.walkRequestOrigin::total            0                       # Table walker requests started/completed, data/inst
system.cpu.istage2_mmu.stage2_tlb.inst_hits            0                       # ITB inst hits
system.cpu.istage2_mmu.stage2_tlb.inst_misses            0                       # ITB inst misses
system.cpu.istage2_mmu.stage2_tlb.read_hits            0                       # DTB read hits
system.cpu.istage2_mmu.stage2_tlb.read_misses            0                       # DTB read misses
system.cpu.istage2_mmu.stage2_tlb.write_hits            0                       # DTB write hits
system.cpu.istage2_mmu.stage2_tlb.write_misses            0                       # DTB write misses
system.cpu.istage2_mmu.stage2_tlb.flush_tlb            0                       # Number of times complete TLB was flushed
system.cpu.istage2_mmu.stage2_tlb.flush_tlb_mva            0                       # Number of times TLB was flushed by MVA
system.cpu.istage2_mmu.stage2_tlb.flush_tlb_mva_asid            0                       # Number of times TLB was flushed by MVA & ASID
system.cpu.istage2_mmu.stage2_tlb.flush_tlb_asid            0                       # Number of times TLB was flushed by ASID
system.cpu.istage2_mmu.stage2_tlb.flush_entries            0                       # Number of entries that have been flushed from TLB
system.cpu.istage2_mmu.stage2_tlb.align_faults            0                       # Number of TLB faults due to alignment restrictions
system.cpu.istage2_mmu.stage2_tlb.prefetch_faults            0                       # Number of TLB faults due to prefetch
system.cpu.istage2_mmu.stage2_tlb.domain_faults            0                       # Number of TLB faults due to domain restrictions
system.cpu.istage2_mmu.stage2_tlb.perms_faults            0                       # Number of TLB faults due to permissions restrictions
system.cpu.istage2_mmu.stage2_tlb.read_accesses            0                       # DTB read accesses
system.cpu.istage2_mmu.stage2_tlb.write_accesses            0                       # DTB write accesses
system.cpu.istage2_mmu.stage2_tlb.inst_accesses            0                       # ITB inst accesses
system.cpu.istage2_mmu.stage2_tlb.hits              0                       # DTB hits
system.cpu.istage2_mmu.stage2_tlb.misses            0                       # DTB misses
system.cpu.istage2_mmu.stage2_tlb.accesses            0                       # DTB accesses
system.cpu.itb.walker.pwrStateResidencyTicks::UNDEFINED 1463631252500                       # Cumulative time (in ticks) in various power states
system.cpu.itb.walker.walks                         0                       # Table walker walks requested
system.cpu.itb.walker.walkRequestOrigin_Requested::Data            0                       # Table walker requests started/completed, data/inst
system.cpu.itb.walker.walkRequestOrigin_Requested::Inst            0                       # Table walker requests started/completed, data/inst
system.cpu.itb.walker.walkRequestOrigin_Requested::total            0                       # Table walker requests started/completed, data/inst
system.cpu.itb.walker.walkRequestOrigin_Completed::Data            0                       # Table walker requests started/completed, data/inst
system.cpu.itb.walker.walkRequestOrigin_Completed::Inst            0                       # Table walker requests started/completed, data/inst
system.cpu.itb.walker.walkRequestOrigin_Completed::total            0                       # Table walker requests started/completed, data/inst
system.cpu.itb.walker.walkRequestOrigin::total            0                       # Table walker requests started/completed, data/inst
system.cpu.itb.inst_hits                            0                       # ITB inst hits
system.cpu.itb.inst_misses                          0                       # ITB inst misses
system.cpu.itb.read_hits                            0                       # DTB read hits
system.cpu.itb.read_misses                          0                       # DTB read misses
system.cpu.itb.write_hits                           0                       # DTB write hits
system.cpu.itb.write_misses                         0                       # DTB write misses
system.cpu.itb.flush_tlb                            0                       # Number of times complete TLB was flushed
system.cpu.itb.flush_tlb_mva                        0                       # Number of times TLB was flushed by MVA
system.cpu.itb.flush_tlb_mva_asid                   0                       # Number of times TLB was flushed by MVA & ASID
system.cpu.itb.flush_tlb_asid                       0                       # Number of times TLB was flushed by ASID
system.cpu.itb.flush_entries                        0                       # Number of entries that have been flushed from TLB
system.cpu.itb.align_faults                         0                       # Number of TLB faults due to alignment restrictions
system.cpu.itb.prefetch_faults                      0                       # Number of TLB faults due to prefetch
system.cpu.itb.domain_faults                        0                       # Number of TLB faults due to domain restrictions
system.cpu.itb.perms_faults                         0                       # Number of TLB faults due to permissions restrictions
system.cpu.itb.read_accesses                        0                       # DTB read accesses
system.cpu.itb.write_accesses                       0                       # DTB write accesses
system.cpu.itb.inst_accesses                        0                       # ITB inst accesses
system.cpu.itb.hits                                 0                       # DTB hits
system.cpu.itb.misses                               0                       # DTB misses
system.cpu.itb.accesses                             0                       # DTB accesses
system.cpu.workload.numSyscalls                     0                       # Number of system calls
system.cpu.pwrStateResidencyTicks::ON    1463631252500                       # Cumulative time (in ticks) in various power states
system.cpu.numCycles                                0                       # number of cpu cycles simulated
system.cpu.numWorkItemsStarted                      0                       # number of work items this cpu started
system.cpu.numWorkItemsCompleted                    0                       # number of work items this cpu completed
system.cpu.committedInsts                           0                       # Number of instructions committed
system.cpu.committedOps                             0                       # Number of ops (including micro ops) committed
system.cpu.num_int_alu_accesses                     0                       # Number of integer alu accesses
system.cpu.num_fp_alu_accesses                      0                       # Number of float alu accesses
system.cpu.num_vec_alu_accesses                     0                       # Number of vector alu accesses
system.cpu.num_func_calls                           0                       # number of times a function call or return occured
system.cpu.num_conditional_control_insts            0                       # number of instructions that are conditional controls
system.cpu.num_int_insts                            0                       # number of integer instructions
system.cpu.num_fp_insts                             0                       # number of float instructions
system.cpu.num_vec_insts                            0                       # number of vector instructions
system.cpu.num_int_register_reads                   0                       # number of times the integer registers were read
system.cpu.num_int_register_writes                  0                       # number of times the integer registers were written
system.cpu.num_fp_register_reads                    0                       # number of times the floating registers were read
system.cpu.num_fp_register_writes                   0                       # number of times the floating registers were written
system.cpu.num_vec_register_reads                   0                       # number of times the vector registers were read
system.cpu.num_vec_register_writes                  0                       # number of times the vector registers were written
system.cpu.num_mem_refs                             0                       # number of memory refs
system.cpu.num_load_insts                           0                       # Number of load instructions
system.cpu.num_store_insts                          0                       # Number of store instructions
system.cpu.num_idle_cycles                          0                       # Number of idle cycles
system.cpu.num_busy_cycles                          0                       # Number of busy cycles
system.cpu.not_idle_fraction                        1                       # Percentage of non-idle cycles
system.cpu.idle_fraction                            0                       # Percentage of idle cycles
system.cpu.op_class::No_OpClass                     0                       # Class of executed instruction
system.cpu.op_class::IntAlu                         0                       # Class of executed instruction
system.cpu.op_class::IntMult                        0                       # Class of executed instruction
system.cpu.op_class::IntDiv                         0                       # Class of executed instruction
system.cpu.op_class::FloatAdd                       0                       # Class of executed instruction
system.cpu.op_class::FloatCmp                       0                       # Class of executed instruction
system.cpu.op_class::FloatCvt                       0                       # Class of executed instruction
system.cpu.op_class::FloatMult                      0                       # Class of executed instruction
system.cpu.op_class::FloatMultAcc                   0                       # Class of executed instruction
system.cpu.op_class::FloatDiv                       0                       # Class of executed instruction
system.cpu.op_class::FloatMisc                      0                       # Class of executed instruction
system.cpu.op_class::FloatSqrt                      0                       # Class of executed instruction
system.cpu.op_class::SimdAdd                        0                       # Class of executed instruction
system.cpu.op_class::SimdAddAcc                     0                       # Class of executed instruction
system.cpu.op_class::SimdAlu                        0                       # Class of executed instruction
system.cpu.op_class::SimdCmp                        0                       # Class of executed instruction
system.cpu.op_class::SimdCvt                        0                       # Class of executed instruction
system.cpu.op_class::SimdMisc                       0                       # Class of executed instruction
system.cpu.op_class::SimdMult                       0                       # Class of executed instruction
system.cpu.op_class::SimdMultAcc                    0                       # Class of executed instruction
system.cpu.op_class::SimdShift                      0                       # Class of executed instruction
system.cpu.op_class::SimdShiftAcc                   0                       # Class of executed instruction
system.cpu.op_class::SimdSqrt                       0                       # Class of executed instruction
system.cpu.op_class::SimdFloatAdd                   0                       # Class of executed instruction
system.cpu.op_class::SimdFloatAlu                   0                       # Class of executed instruction
system.cpu.op_class::SimdFloatCmp                   0                       # Class of executed instruction
system.cpu.op_class::SimdFloatCvt                   0                       # Class of executed instruction
system.cpu.op_class::SimdFloatDiv                   0                       # Class of executed instruction
system.cpu.op_class::SimdFloatMisc                  0                       # Class of executed instruction
system.cpu.op_class::SimdFloatMult                  0                       # Class of executed instruction
system.cpu.op_class::SimdFloatMultAcc               0                       # Class of executed instruction
system.cpu.op_class::SimdFloatSqrt                  0                       # Class of executed instruction
system.cpu.op_class::MemRead                        0                       # Class of executed instruction
system.cpu.op_class::MemWrite                       0                       # Class of executed instruction
system.cpu.op_class::FloatMemRead                   0                       # Class of executed instruction
system.cpu.op_class::FloatMemWrite                  0                       # Class of executed instruction
system.cpu.op_class::IprAccess                      0                       # Class of executed instruction
system.cpu.op_class::InstPrefetch                   0                       # Class of executed instruction
system.cpu.op_class::total                          0                       # Class of executed instruction
system.cpu.dcache.tags.pwrStateResidencyTicks::UNDEFINED 1463631252500                       # Cumulative time (in ticks) in various power states
system.cpu.dcache.tags.replacements          29885614                       # number of replacements
system.cpu.dcache.tags.tagsinuse                 1024                       # Cycle average of tags in use
system.cpu.dcache.tags.total_refs           466263964                       # Total number of references to valid blocks.
system.cpu.dcache.tags.sampled_refs          29886638                       # Sample count of references to valid blocks.
system.cpu.dcache.tags.avg_refs             15.601084                       # Average number of references to valid blocks.
system.cpu.dcache.tags.warmup_cycle                 0                       # Cycle when the warmup percentage was hit.
system.cpu.dcache.tags.occ_blocks::cpu.data     0.044467                       # Average occupied blocks per requestor
system.cpu.dcache.tags.occ_blocks::switch_cpus.data  1023.955533                       # Average occupied blocks per requestor
system.cpu.dcache.tags.occ_percent::cpu.data     0.000043                       # Average percentage of cache occupancy
system.cpu.dcache.tags.occ_percent::switch_cpus.data     0.999957                       # Average percentage of cache occupancy
system.cpu.dcache.tags.occ_percent::total            1                       # Average percentage of cache occupancy
system.cpu.dcache.tags.occ_task_id_blocks::1024         1024                       # Occupied blocks per task id
system.cpu.dcache.tags.age_task_id_blocks_1024::0          175                       # Occupied blocks per task id
system.cpu.dcache.tags.age_task_id_blocks_1024::1          845                       # Occupied blocks per task id
system.cpu.dcache.tags.age_task_id_blocks_1024::2            4                       # Occupied blocks per task id
system.cpu.dcache.tags.occ_task_id_percent::1024            1                       # Percentage of cache occupancy per task id
system.cpu.dcache.tags.tag_accesses         951430350                       # Number of tag accesses
system.cpu.dcache.tags.data_accesses        951430350                       # Number of data accesses
system.cpu.dcache.pwrStateResidencyTicks::UNDEFINED 1463631252500                       # Cumulative time (in ticks) in various power states
system.cpu.dcache.ReadReq_hits::switch_cpus.data    377940830                       # number of ReadReq hits
system.cpu.dcache.ReadReq_hits::total       377940830                       # number of ReadReq hits
system.cpu.dcache.WriteReq_hits::switch_cpus.data     42861952                       # number of WriteReq hits
system.cpu.dcache.WriteReq_hits::total       42861952                       # number of WriteReq hits
system.cpu.dcache.demand_hits::switch_cpus.data    420802782                       # number of demand (read+write) hits
system.cpu.dcache.demand_hits::total        420802782                       # number of demand (read+write) hits
system.cpu.dcache.overall_hits::switch_cpus.data    420802782                       # number of overall hits
system.cpu.dcache.overall_hits::total       420802782                       # number of overall hits
system.cpu.dcache.ReadReq_misses::switch_cpus.data     38591080                       # number of ReadReq misses
system.cpu.dcache.ReadReq_misses::total      38591080                       # number of ReadReq misses
system.cpu.dcache.WriteReq_misses::switch_cpus.data      1378506                       # number of WriteReq misses
system.cpu.dcache.WriteReq_misses::total      1378506                       # number of WriteReq misses
system.cpu.dcache.demand_misses::switch_cpus.data     39969586                       # number of demand (read+write) misses
system.cpu.dcache.demand_misses::total       39969586                       # number of demand (read+write) misses
system.cpu.dcache.overall_misses::switch_cpus.data     39969586                       # number of overall misses
system.cpu.dcache.overall_misses::total      39969586                       # number of overall misses
system.cpu.dcache.ReadReq_miss_latency::switch_cpus.data 2091394878500                       # number of ReadReq miss cycles
system.cpu.dcache.ReadReq_miss_latency::total 2091394878500                       # number of ReadReq miss cycles
system.cpu.dcache.WriteReq_miss_latency::switch_cpus.data  78721091060                       # number of WriteReq miss cycles
system.cpu.dcache.WriteReq_miss_latency::total  78721091060                       # number of WriteReq miss cycles
system.cpu.dcache.demand_miss_latency::switch_cpus.data 2170115969560                       # number of demand (read+write) miss cycles
system.cpu.dcache.demand_miss_latency::total 2170115969560                       # number of demand (read+write) miss cycles
system.cpu.dcache.overall_miss_latency::switch_cpus.data 2170115969560                       # number of overall miss cycles
system.cpu.dcache.overall_miss_latency::total 2170115969560                       # number of overall miss cycles
system.cpu.dcache.ReadReq_accesses::switch_cpus.data    416531910                       # number of ReadReq accesses(hits+misses)
system.cpu.dcache.ReadReq_accesses::total    416531910                       # number of ReadReq accesses(hits+misses)
system.cpu.dcache.WriteReq_accesses::switch_cpus.data     44240458                       # number of WriteReq accesses(hits+misses)
system.cpu.dcache.WriteReq_accesses::total     44240458                       # number of WriteReq accesses(hits+misses)
system.cpu.dcache.demand_accesses::switch_cpus.data    460772368                       # number of demand (read+write) accesses
system.cpu.dcache.demand_accesses::total    460772368                       # number of demand (read+write) accesses
system.cpu.dcache.overall_accesses::switch_cpus.data    460772368                       # number of overall (read+write) accesses
system.cpu.dcache.overall_accesses::total    460772368                       # number of overall (read+write) accesses
system.cpu.dcache.ReadReq_miss_rate::switch_cpus.data     0.092649                       # miss rate for ReadReq accesses
system.cpu.dcache.ReadReq_miss_rate::total     0.092649                       # miss rate for ReadReq accesses
system.cpu.dcache.WriteReq_miss_rate::switch_cpus.data     0.031159                       # miss rate for WriteReq accesses
system.cpu.dcache.WriteReq_miss_rate::total     0.031159                       # miss rate for WriteReq accesses
system.cpu.dcache.demand_miss_rate::switch_cpus.data     0.086745                       # miss rate for demand accesses
system.cpu.dcache.demand_miss_rate::total     0.086745                       # miss rate for demand accesses
system.cpu.dcache.overall_miss_rate::switch_cpus.data     0.086745                       # miss rate for overall accesses
system.cpu.dcache.overall_miss_rate::total     0.086745                       # miss rate for overall accesses
system.cpu.dcache.ReadReq_avg_miss_latency::switch_cpus.data 54193.737996                       # average ReadReq miss latency
system.cpu.dcache.ReadReq_avg_miss_latency::total 54193.737996                       # average ReadReq miss latency
system.cpu.dcache.WriteReq_avg_miss_latency::switch_cpus.data 57106.092436                       # average WriteReq miss latency
system.cpu.dcache.WriteReq_avg_miss_latency::total 57106.092436                       # average WriteReq miss latency
system.cpu.dcache.demand_avg_miss_latency::switch_cpus.data 54294.181820                       # average overall miss latency
system.cpu.dcache.demand_avg_miss_latency::total 54294.181820                       # average overall miss latency
system.cpu.dcache.overall_avg_miss_latency::switch_cpus.data 54294.181820                       # average overall miss latency
system.cpu.dcache.overall_avg_miss_latency::total 54294.181820                       # average overall miss latency
system.cpu.dcache.blocked_cycles::no_mshrs    446360214                       # number of cycles access was blocked
system.cpu.dcache.blocked_cycles::no_targets            0                       # number of cycles access was blocked
system.cpu.dcache.blocked::no_mshrs           9982920                       # number of cycles access was blocked
system.cpu.dcache.blocked::no_targets               0                       # number of cycles access was blocked
system.cpu.dcache.avg_blocked_cycles::no_mshrs    44.712390                       # average number of cycles each access was blocked
system.cpu.dcache.avg_blocked_cycles::no_targets          nan                       # average number of cycles each access was blocked
system.cpu.dcache.writebacks::writebacks      1423178                       # number of writebacks
system.cpu.dcache.writebacks::total           1423178                       # number of writebacks
system.cpu.dcache.ReadReq_mshr_hits::switch_cpus.data      9419359                       # number of ReadReq MSHR hits
system.cpu.dcache.ReadReq_mshr_hits::total      9419359                       # number of ReadReq MSHR hits
system.cpu.dcache.WriteReq_mshr_hits::switch_cpus.data       664610                       # number of WriteReq MSHR hits
system.cpu.dcache.WriteReq_mshr_hits::total       664610                       # number of WriteReq MSHR hits
system.cpu.dcache.demand_mshr_hits::switch_cpus.data     10083969                       # number of demand (read+write) MSHR hits
system.cpu.dcache.demand_mshr_hits::total     10083969                       # number of demand (read+write) MSHR hits
system.cpu.dcache.overall_mshr_hits::switch_cpus.data     10083969                       # number of overall MSHR hits
system.cpu.dcache.overall_mshr_hits::total     10083969                       # number of overall MSHR hits
system.cpu.dcache.ReadReq_mshr_misses::switch_cpus.data     29171721                       # number of ReadReq MSHR misses
system.cpu.dcache.ReadReq_mshr_misses::total     29171721                       # number of ReadReq MSHR misses
system.cpu.dcache.WriteReq_mshr_misses::switch_cpus.data       713896                       # number of WriteReq MSHR misses
system.cpu.dcache.WriteReq_mshr_misses::total       713896                       # number of WriteReq MSHR misses
system.cpu.dcache.demand_mshr_misses::switch_cpus.data     29885617                       # number of demand (read+write) MSHR misses
system.cpu.dcache.demand_mshr_misses::total     29885617                       # number of demand (read+write) MSHR misses
system.cpu.dcache.overall_mshr_misses::switch_cpus.data     29885617                       # number of overall MSHR misses
system.cpu.dcache.overall_mshr_misses::total     29885617                       # number of overall MSHR misses
system.cpu.dcache.ReadReq_mshr_miss_latency::switch_cpus.data 1468620495000                       # number of ReadReq MSHR miss cycles
system.cpu.dcache.ReadReq_mshr_miss_latency::total 1468620495000                       # number of ReadReq MSHR miss cycles
system.cpu.dcache.WriteReq_mshr_miss_latency::switch_cpus.data  62406294467                       # number of WriteReq MSHR miss cycles
system.cpu.dcache.WriteReq_mshr_miss_latency::total  62406294467                       # number of WriteReq MSHR miss cycles
system.cpu.dcache.demand_mshr_miss_latency::switch_cpus.data 1531026789467                       # number of demand (read+write) MSHR miss cycles
system.cpu.dcache.demand_mshr_miss_latency::total 1531026789467                       # number of demand (read+write) MSHR miss cycles
system.cpu.dcache.overall_mshr_miss_latency::switch_cpus.data 1531026789467                       # number of overall MSHR miss cycles
system.cpu.dcache.overall_mshr_miss_latency::total 1531026789467                       # number of overall MSHR miss cycles
system.cpu.dcache.ReadReq_mshr_miss_rate::switch_cpus.data     0.070035                       # mshr miss rate for ReadReq accesses
system.cpu.dcache.ReadReq_mshr_miss_rate::total     0.070035                       # mshr miss rate for ReadReq accesses
system.cpu.dcache.WriteReq_mshr_miss_rate::switch_cpus.data     0.016137                       # mshr miss rate for WriteReq accesses
system.cpu.dcache.WriteReq_mshr_miss_rate::total     0.016137                       # mshr miss rate for WriteReq accesses
system.cpu.dcache.demand_mshr_miss_rate::switch_cpus.data     0.064860                       # mshr miss rate for demand accesses
system.cpu.dcache.demand_mshr_miss_rate::total     0.064860                       # mshr miss rate for demand accesses
system.cpu.dcache.overall_mshr_miss_rate::switch_cpus.data     0.064860                       # mshr miss rate for overall accesses
system.cpu.dcache.overall_mshr_miss_rate::total     0.064860                       # mshr miss rate for overall accesses
system.cpu.dcache.ReadReq_avg_mshr_miss_latency::switch_cpus.data 50343.978506                       # average ReadReq mshr miss latency
system.cpu.dcache.ReadReq_avg_mshr_miss_latency::total 50343.978506                       # average ReadReq mshr miss latency
system.cpu.dcache.WriteReq_avg_mshr_miss_latency::switch_cpus.data 87416.506700                       # average WriteReq mshr miss latency
system.cpu.dcache.WriteReq_avg_mshr_miss_latency::total 87416.506700                       # average WriteReq mshr miss latency
system.cpu.dcache.demand_avg_mshr_miss_latency::switch_cpus.data 51229.552646                       # average overall mshr miss latency
system.cpu.dcache.demand_avg_mshr_miss_latency::total 51229.552646                       # average overall mshr miss latency
system.cpu.dcache.overall_avg_mshr_miss_latency::switch_cpus.data 51229.552646                       # average overall mshr miss latency
system.cpu.dcache.overall_avg_mshr_miss_latency::total 51229.552646                       # average overall mshr miss latency
system.cpu.icache.tags.pwrStateResidencyTicks::UNDEFINED 1463631252500                       # Cumulative time (in ticks) in various power states
system.cpu.icache.tags.replacements                30                       # number of replacements
system.cpu.icache.tags.tagsinuse                  457                       # Cycle average of tags in use
system.cpu.icache.tags.total_refs          1588337855                       # Total number of references to valid blocks.
system.cpu.icache.tags.sampled_refs               487                       # Sample count of references to valid blocks.
system.cpu.icache.tags.avg_refs          3261474.034908                       # Average number of references to valid blocks.
system.cpu.icache.tags.warmup_cycle                 0                       # Cycle when the warmup percentage was hit.
system.cpu.icache.tags.occ_blocks::cpu.inst   433.672187                       # Average occupied blocks per requestor
system.cpu.icache.tags.occ_blocks::switch_cpus.inst    23.327813                       # Average occupied blocks per requestor
system.cpu.icache.tags.occ_percent::cpu.inst     0.847016                       # Average percentage of cache occupancy
system.cpu.icache.tags.occ_percent::switch_cpus.inst     0.045562                       # Average percentage of cache occupancy
system.cpu.icache.tags.occ_percent::total     0.892578                       # Average percentage of cache occupancy
system.cpu.icache.tags.occ_task_id_blocks::1024          457                       # Occupied blocks per task id
system.cpu.icache.tags.age_task_id_blocks_1024::4          457                       # Occupied blocks per task id
system.cpu.icache.tags.occ_task_id_percent::1024     0.892578                       # Percentage of cache occupancy per task id
system.cpu.icache.tags.tag_accesses         531236740                       # Number of tag accesses
system.cpu.icache.tags.data_accesses        531236740                       # Number of data accesses
system.cpu.icache.pwrStateResidencyTicks::UNDEFINED 1463631252500                       # Cumulative time (in ticks) in various power states
system.cpu.icache.ReadReq_hits::switch_cpus.inst    265618307                       # number of ReadReq hits
system.cpu.icache.ReadReq_hits::total       265618307                       # number of ReadReq hits
system.cpu.icache.demand_hits::switch_cpus.inst    265618307                       # number of demand (read+write) hits
system.cpu.icache.demand_hits::total        265618307                       # number of demand (read+write) hits
system.cpu.icache.overall_hits::switch_cpus.inst    265618307                       # number of overall hits
system.cpu.icache.overall_hits::total       265618307                       # number of overall hits
system.cpu.icache.ReadReq_misses::switch_cpus.inst           48                       # number of ReadReq misses
system.cpu.icache.ReadReq_misses::total            48                       # number of ReadReq misses
system.cpu.icache.demand_misses::switch_cpus.inst           48                       # number of demand (read+write) misses
system.cpu.icache.demand_misses::total             48                       # number of demand (read+write) misses
system.cpu.icache.overall_misses::switch_cpus.inst           48                       # number of overall misses
system.cpu.icache.overall_misses::total            48                       # number of overall misses
system.cpu.icache.ReadReq_miss_latency::switch_cpus.inst      4084500                       # number of ReadReq miss cycles
system.cpu.icache.ReadReq_miss_latency::total      4084500                       # number of ReadReq miss cycles
system.cpu.icache.demand_miss_latency::switch_cpus.inst      4084500                       # number of demand (read+write) miss cycles
system.cpu.icache.demand_miss_latency::total      4084500                       # number of demand (read+write) miss cycles
system.cpu.icache.overall_miss_latency::switch_cpus.inst      4084500                       # number of overall miss cycles
system.cpu.icache.overall_miss_latency::total      4084500                       # number of overall miss cycles
system.cpu.icache.ReadReq_accesses::switch_cpus.inst    265618355                       # number of ReadReq accesses(hits+misses)
system.cpu.icache.ReadReq_accesses::total    265618355                       # number of ReadReq accesses(hits+misses)
system.cpu.icache.demand_accesses::switch_cpus.inst    265618355                       # number of demand (read+write) accesses
system.cpu.icache.demand_accesses::total    265618355                       # number of demand (read+write) accesses
system.cpu.icache.overall_accesses::switch_cpus.inst    265618355                       # number of overall (read+write) accesses
system.cpu.icache.overall_accesses::total    265618355                       # number of overall (read+write) accesses
system.cpu.icache.ReadReq_miss_rate::switch_cpus.inst     0.000000                       # miss rate for ReadReq accesses
system.cpu.icache.ReadReq_miss_rate::total     0.000000                       # miss rate for ReadReq accesses
system.cpu.icache.demand_miss_rate::switch_cpus.inst     0.000000                       # miss rate for demand accesses
system.cpu.icache.demand_miss_rate::total     0.000000                       # miss rate for demand accesses
system.cpu.icache.overall_miss_rate::switch_cpus.inst     0.000000                       # miss rate for overall accesses
system.cpu.icache.overall_miss_rate::total     0.000000                       # miss rate for overall accesses
system.cpu.icache.ReadReq_avg_miss_latency::switch_cpus.inst 85093.750000                       # average ReadReq miss latency
system.cpu.icache.ReadReq_avg_miss_latency::total 85093.750000                       # average ReadReq miss latency
system.cpu.icache.demand_avg_miss_latency::switch_cpus.inst 85093.750000                       # average overall miss latency
system.cpu.icache.demand_avg_miss_latency::total 85093.750000                       # average overall miss latency
system.cpu.icache.overall_avg_miss_latency::switch_cpus.inst 85093.750000                       # average overall miss latency
system.cpu.icache.overall_avg_miss_latency::total 85093.750000                       # average overall miss latency
system.cpu.icache.blocked_cycles::no_mshrs            0                       # number of cycles access was blocked
system.cpu.icache.blocked_cycles::no_targets            0                       # number of cycles access was blocked
system.cpu.icache.blocked::no_mshrs                 0                       # number of cycles access was blocked
system.cpu.icache.blocked::no_targets               0                       # number of cycles access was blocked
system.cpu.icache.avg_blocked_cycles::no_mshrs          nan                       # average number of cycles each access was blocked
system.cpu.icache.avg_blocked_cycles::no_targets          nan                       # average number of cycles each access was blocked
system.cpu.icache.writebacks::writebacks           30                       # number of writebacks
system.cpu.icache.writebacks::total                30                       # number of writebacks
system.cpu.icache.ReadReq_mshr_hits::switch_cpus.inst           18                       # number of ReadReq MSHR hits
system.cpu.icache.ReadReq_mshr_hits::total           18                       # number of ReadReq MSHR hits
system.cpu.icache.demand_mshr_hits::switch_cpus.inst           18                       # number of demand (read+write) MSHR hits
system.cpu.icache.demand_mshr_hits::total           18                       # number of demand (read+write) MSHR hits
system.cpu.icache.overall_mshr_hits::switch_cpus.inst           18                       # number of overall MSHR hits
system.cpu.icache.overall_mshr_hits::total           18                       # number of overall MSHR hits
system.cpu.icache.ReadReq_mshr_misses::switch_cpus.inst           30                       # number of ReadReq MSHR misses
system.cpu.icache.ReadReq_mshr_misses::total           30                       # number of ReadReq MSHR misses
system.cpu.icache.demand_mshr_misses::switch_cpus.inst           30                       # number of demand (read+write) MSHR misses
system.cpu.icache.demand_mshr_misses::total           30                       # number of demand (read+write) MSHR misses
system.cpu.icache.overall_mshr_misses::switch_cpus.inst           30                       # number of overall MSHR misses
system.cpu.icache.overall_mshr_misses::total           30                       # number of overall MSHR misses
system.cpu.icache.ReadReq_mshr_miss_latency::switch_cpus.inst      2652500                       # number of ReadReq MSHR miss cycles
system.cpu.icache.ReadReq_mshr_miss_latency::total      2652500                       # number of ReadReq MSHR miss cycles
system.cpu.icache.demand_mshr_miss_latency::switch_cpus.inst      2652500                       # number of demand (read+write) MSHR miss cycles
[...]
system.switch_cpus.iew.lsq.thread0.invAddrLoads            0                       # Number of loads ignored due to an invalid address
system.switch_cpus.iew.lsq.thread0.squashedLoads     12149275                       # Number of loads squashed
system.switch_cpus.iew.lsq.thread0.ignoredResponses           74                       # Number of memory responses ignored because the instruction is squashed
system.switch_cpus.iew.lsq.thread0.memOrderViolation         1898                       # Number of memory ordering violations
system.switch_cpus.iew.lsq.thread0.squashedStores      2173240                       # Number of stores squashed
system.switch_cpus.iew.lsq.thread0.invAddrSwpfs            0                       # Number of software prefetches ignored due to an invalid address
system.switch_cpus.iew.lsq.thread0.blockedLoads            0                       # Number of blocked loads due to partial load-store forwarding
system.switch_cpus.iew.lsq.thread0.rescheduledLoads            0                       # Number of loads that were rescheduled
system.switch_cpus.iew.lsq.thread0.cacheBlocked     41962964                       # Number of times an access to memory failed due to the cache being blocked
system.switch_cpus.iew.iewIdleCycles                0                       # Number of cycles IEW is idle
system.switch_cpus.iew.iewSquashCycles        5134586                       # Number of cycles IEW is squashing
system.switch_cpus.iew.iewBlockCycles          362648                       # Number of cycles IEW is blocking
system.switch_cpus.iew.iewUnblockCycles     371889563                       # Number of cycles IEW is unblocking
system.switch_cpus.iew.iewDispatchedInsts   1037703464                       # Number of instructions dispatched to IQ
system.switch_cpus.iew.iewDispSquashedInsts            0                       # Number of squashed instructions skipped by dispatch
system.switch_cpus.iew.iewDispLoadInsts     430797971                       # Number of dispatched load instructions
system.switch_cpus.iew.iewDispStoreInsts     46413701                       # Number of dispatched store instructions
system.switch_cpus.iew.iewDispNonSpecInsts            0                       # Number of dispatched non-speculative instructions
system.switch_cpus.iew.iewIQFullEvents             49                       # Number of times the IQ has become full, causing a stall
system.switch_cpus.iew.iewLSQFullEvents     371987061                       # Number of times the LSQ has become full, causing a stall
system.switch_cpus.iew.memOrderViolationEvents         1898                       # Number of memory order violations
system.switch_cpus.iew.predictedTakenIncorrect      3252061                       # Number of branches that were predicted taken incorrectly
system.switch_cpus.iew.predictedNotTakenIncorrect      1880950                       # Number of branches that were predicted not taken incorrectly
system.switch_cpus.iew.branchMispredicts      5133011                       # Number of branch mispredicts detected at execute
system.switch_cpus.iew.iewExecutedInsts    1060323387                       # Number of executed instructions
system.switch_cpus.iew.iewExecLoadInsts     463299096                       # Number of load instructions executed
system.switch_cpus.iew.iewExecSquashedInsts     10072777                       # Number of squashed instructions skipped in execute
system.switch_cpus.iew.exec_swp                     0                       # number of swp insts executed
system.switch_cpus.iew.exec_nop                     1                       # number of nop insts executed
system.switch_cpus.iew.exec_refs            507543401                       # number of memory reference insts executed
system.switch_cpus.iew.exec_branches         26918916                       # Number of branches executed
system.switch_cpus.iew.exec_stores           44244305                       # Number of stores executed
system.switch_cpus.iew.exec_rate             0.668012                       # Inst execution rate
system.switch_cpus.iew.wb_sent             1016599845                       # cumulative count of insts sent to commit
system.switch_cpus.iew.wb_count            1016457601                       # cumulative count of insts written-back
system.switch_cpus.iew.wb_producers         497582894                       # num instructions producing a value
system.switch_cpus.iew.wb_consumers         684251135                       # num instructions consuming a value
system.switch_cpus.iew.wb_rate               0.640376                       # insts written-back per cycle
system.switch_cpus.iew.wb_fanout             0.727193                       # average fanout of values written-back
system.switch_cpus.commit.commitSquashedInsts     18129900                       # The number of squashed insts skipped by commit
system.switch_cpus.commit.branchMispredicts      5132975                       # The number of times a branch was mispredicted
system.switch_cpus.commit.committed_per_cycle::samples   1581783026                       # Number of insts commited each cycle
system.switch_cpus.commit.committed_per_cycle::mean     0.638213                       # Number of insts commited each cycle
system.switch_cpus.commit.committed_per_cycle::stdev     1.814897                       # Number of insts commited each cycle
system.switch_cpus.commit.committed_per_cycle::underflows            0      0.00%      0.00% # Number of insts commited each cycle
system.switch_cpus.commit.committed_per_cycle::0   1315374760     83.16%     83.16% # Number of insts commited each cycle
system.switch_cpus.commit.committed_per_cycle::1     83372559      5.27%     88.43% # Number of insts commited each cycle
system.switch_cpus.commit.committed_per_cycle::2     40366787      2.55%     90.98% # Number of insts commited each cycle
system.switch_cpus.commit.committed_per_cycle::3     28637542      1.81%     92.79% # Number of insts commited each cycle
system.switch_cpus.commit.committed_per_cycle::4     18581006      1.17%     93.97% # Number of insts commited each cycle
system.switch_cpus.commit.committed_per_cycle::5     16550406      1.05%     95.01% # Number of insts commited each cycle
system.switch_cpus.commit.committed_per_cycle::6     11458465      0.72%     95.74% # Number of insts commited each cycle
system.switch_cpus.commit.committed_per_cycle::7      5863353      0.37%     96.11% # Number of insts commited each cycle
system.switch_cpus.commit.committed_per_cycle::8     61578148      3.89%    100.00% # Number of insts commited each cycle
system.switch_cpus.commit.committed_per_cycle::overflows            0      0.00%    100.00% # Number of insts commited each cycle
system.switch_cpus.commit.committed_per_cycle::min_value            0                       # Number of insts commited each cycle
system.switch_cpus.commit.committed_per_cycle::max_value            8                       # Number of insts commited each cycle
system.switch_cpus.commit.committed_per_cycle::total   1581783026                       # Number of insts commited each cycle
system.switch_cpus.commit.committedInsts   1000000000                       # Number of instructions committed
system.switch_cpus.commit.committedOps     1009514258                       # Number of ops (including micro ops) committed
system.switch_cpus.commit.swp_count                 0                       # Number of s/w prefetches committed
system.switch_cpus.commit.refs              462889141                       # Number of memory references committed
system.switch_cpus.commit.loads             418648683                       # Number of loads committed
system.switch_cpus.commit.membars                   0                       # Number of memory barriers committed
system.switch_cpus.commit.branches           26745636                       # Number of branches committed
system.switch_cpus.commit.vec_insts                 0                       # Number of committed Vector instructions.
system.switch_cpus.commit.fp_insts          355077573                       # Number of committed floating point instructions.
system.switch_cpus.commit.int_insts         858033313                       # Number of committed integer instructions.
system.switch_cpus.commit.function_calls            4                       # Number of function calls committed.
system.switch_cpus.commit.op_class_0::No_OpClass            0      0.00%      0.00% # Class of committed instruction
system.switch_cpus.commit.op_class_0::IntAlu    414157392     41.03%     41.03% # Class of committed instruction
system.switch_cpus.commit.op_class_0::IntMult      3202140      0.32%     41.34% # Class of committed instruction
system.switch_cpus.commit.op_class_0::IntDiv      1125212      0.11%     41.45% # Class of committed instruction
system.switch_cpus.commit.op_class_0::FloatAdd            0      0.00%     41.45% # Class of committed instruction
system.switch_cpus.commit.op_class_0::FloatCmp            0      0.00%     41.45% # Class of committed instruction
system.switch_cpus.commit.op_class_0::FloatCvt            0      0.00%     41.45% # Class of committed instruction
system.switch_cpus.commit.op_class_0::FloatMult            0      0.00%     41.45% # Class of committed instruction
system.switch_cpus.commit.op_class_0::FloatMultAcc            0      0.00%     41.45% # Class of committed instruction
system.switch_cpus.commit.op_class_0::FloatDiv            0      0.00%     41.45% # Class of committed instruction
system.switch_cpus.commit.op_class_0::FloatMisc            0      0.00%     41.45% # Class of committed instruction
system.switch_cpus.commit.op_class_0::FloatSqrt            0      0.00%     41.45% # Class of committed instruction
system.switch_cpus.commit.op_class_0::SimdAdd            0      0.00%     41.45% # Class of committed instruction
system.switch_cpus.commit.op_class_0::SimdAddAcc            0      0.00%     41.45% # Class of committed instruction
system.switch_cpus.commit.op_class_0::SimdAlu            0      0.00%     41.45% # Class of committed instruction
system.switch_cpus.commit.op_class_0::SimdCmp            0      0.00%     41.45% # Class of committed instruction
system.switch_cpus.commit.op_class_0::SimdCvt            0      0.00%     41.45% # Class of committed instruction
system.switch_cpus.commit.op_class_0::SimdMisc            0      0.00%     41.45% # Class of committed instruction
system.switch_cpus.commit.op_class_0::SimdMult            0      0.00%     41.45% # Class of committed instruction
system.switch_cpus.commit.op_class_0::SimdMultAcc            0      0.00%     41.45% # Class of committed instruction
system.switch_cpus.commit.op_class_0::SimdShift            0      0.00%     41.45% # Class of committed instruction
system.switch_cpus.commit.op_class_0::SimdShiftAcc            0      0.00%     41.45% # Class of committed instruction
system.switch_cpus.commit.op_class_0::SimdSqrt            0      0.00%     41.45% # Class of committed instruction
system.switch_cpus.commit.op_class_0::SimdFloatAdd     14997282      1.49%     42.94% # Class of committed instruction
system.switch_cpus.commit.op_class_0::SimdFloatAlu            0      0.00%     42.94% # Class of committed instruction
system.switch_cpus.commit.op_class_0::SimdFloatCmp            2      0.00%     42.94% # Class of committed instruction
system.switch_cpus.commit.op_class_0::SimdFloatCvt            0      0.00%     42.94% # Class of committed instruction
system.switch_cpus.commit.op_class_0::SimdFloatDiv            7      0.00%     42.94% # Class of committed instruction
system.switch_cpus.commit.op_class_0::SimdFloatMisc      6134119      0.61%     43.55% # Class of committed instruction
system.switch_cpus.commit.op_class_0::SimdFloatMult     14321283      1.42%     44.97% # Class of committed instruction
system.switch_cpus.commit.op_class_0::SimdFloatMultAcc     92687680      9.18%     54.15% # Class of committed instruction
system.switch_cpus.commit.op_class_0::SimdFloatSqrt            0      0.00%     54.15% # Class of committed instruction
system.switch_cpus.commit.op_class_0::MemRead    209362699     20.74%     74.89% # Class of committed instruction
system.switch_cpus.commit.op_class_0::MemWrite     26589240      2.63%     77.52% # Class of committed instruction
system.switch_cpus.commit.op_class_0::FloatMemRead    209285984     20.73%     98.25% # Class of committed instruction
system.switch_cpus.commit.op_class_0::FloatMemWrite     17651218      1.75%    100.00% # Class of committed instruction
system.switch_cpus.commit.op_class_0::IprAccess            0      0.00%    100.00% # Class of committed instruction
system.switch_cpus.commit.op_class_0::InstPrefetch            0      0.00%    100.00% # Class of committed instruction
system.switch_cpus.commit.op_class_0::total   1009514258                       # Class of committed instruction
system.switch_cpus.commit.bw_lim_events      61578148                       # number cycles where commit BW limit reached
system.switch_cpus.rob.rob_reads           2547849036                       # The number of ROB reads
system.switch_cpus.rob.rob_writes          2060784723                       # The number of ROB writes
system.switch_cpus.timesIdled                      36                       # Number of times that the entire CPU went into an idle state and unscheduled itself
system.switch_cpus.idleCycles                    3310                       # Total number of cycles that the CPU has spent unscheduled due to idling
system.switch_cpus.committedInsts          1000000000                       # Number of Instructions Simulated
system.switch_cpus.committedOps            1009514258                       # Number of Ops (including micro ops) Simulated
system.switch_cpus.cpi                       1.587283                       # CPI: Cycles Per Instruction
system.switch_cpus.cpi_total                 1.587283                       # CPI: Total CPI of All Threads
system.switch_cpus.ipc                       0.630007                       # IPC: Instructions Per Cycle
system.switch_cpus.ipc_total                 0.630007                       # IPC: Total IPC of All Threads
system.switch_cpus.int_regfile_reads       1199981049                       # number of integer regfile reads
system.switch_cpus.int_regfile_writes       580901770                       # number of integer regfile writes
system.switch_cpus.fp_regfile_reads         704646974                       # number of floating regfile reads
system.switch_cpus.fp_regfile_writes        674853756                       # number of floating regfile writes
system.switch_cpus.cc_regfile_reads        4439696825                       # number of cc regfile reads
system.switch_cpus.cc_regfile_writes        457787633                       # number of cc regfile writes
system.switch_cpus.misc_regfile_reads      3164880265                       # number of misc regfile reads
system.switch_cpus.misc_regfile_writes      122006254                       # number of misc regfile writes
system.tol2bus.snoop_filter.tot_requests     59771291                       # Total number of requests made to the snoop filter.
system.tol2bus.snoop_filter.hit_single_requests     29885644                       # Number of requests hitting in the snoop filter with a single holder of the requested data.
system.tol2bus.snoop_filter.hit_multi_requests           16                       # Number of requests hitting in the snoop filter with multiple (>1) holders of the requested data.
system.tol2bus.snoop_filter.tot_snoops             44                       # Total number of snoops made to the snoop filter.
system.tol2bus.snoop_filter.hit_single_snoops           44                       # Number of snoops hitting in the snoop filter with a single holder of the requested data.
system.tol2bus.snoop_filter.hit_multi_snoops            0                       # Number of snoops hitting in the snoop filter with multiple (>1) holders of the requested data.
system.tol2bus.pwrStateResidencyTicks::UNDEFINED 1463631252500                       # Cumulative time (in ticks) in various power states
system.tol2bus.trans_dist::ReadResp          29171748                       # Transaction distribution
system.tol2bus.trans_dist::WritebackDirty      2693762                       # Transaction distribution
system.tol2bus.trans_dist::WritebackClean           30                       # Transaction distribution
system.tol2bus.trans_dist::CleanEvict        43113212                       # Transaction distribution
system.tol2bus.trans_dist::ReadExReq           713896                       # Transaction distribution
system.tol2bus.trans_dist::ReadExResp          713896                       # Transaction distribution
system.tol2bus.trans_dist::ReadCleanReq            30                       # Transaction distribution
system.tol2bus.trans_dist::ReadSharedReq     29171721                       # Transaction distribution
system.tol2bus.pkt_count_system.cpu.icache.mem_side::system.l2.cpu_side           90                       # Packet count per connected master and slave (bytes)
system.tol2bus.pkt_count_system.cpu.dcache.mem_side::system.l2.cpu_side     89656845                       # Packet count per connected master and slave (bytes)
system.tol2bus.pkt_count::total              89656935                       # Packet count per connected master and slave (bytes)
system.tol2bus.pkt_size_system.cpu.icache.mem_side::system.l2.cpu_side         3840                       # Cumulative packet size per connected master and slave (bytes)
system.tol2bus.pkt_size_system.cpu.dcache.mem_side::system.l2.cpu_side   2003762688                       # Cumulative packet size per connected master and slave (bytes)
system.tol2bus.pkt_size::total             2003766528                       # Cumulative packet size per connected master and slave (bytes)
system.tol2bus.snoops                        15921360                       # Total snoops (count)
system.tol2bus.snoopTraffic                  81317376                       # Total snoop traffic (bytes)
system.tol2bus.snoop_fanout::samples         45807007                       # Request fanout histogram
system.tol2bus.snoop_fanout::mean            0.000001                       # Request fanout histogram
system.tol2bus.snoop_fanout::stdev           0.001144                       # Request fanout histogram
system.tol2bus.snoop_fanout::underflows             0      0.00%      0.00% # Request fanout histogram
system.tol2bus.snoop_fanout::0               45806947    100.00%    100.00% # Request fanout histogram
system.tol2bus.snoop_fanout::1                     60      0.00%    100.00% # Request fanout histogram
system.tol2bus.snoop_fanout::2                      0      0.00%    100.00% # Request fanout histogram
system.tol2bus.snoop_fanout::overflows              0      0.00%    100.00% # Request fanout histogram
system.tol2bus.snoop_fanout::min_value              0                       # Request fanout histogram
system.tol2bus.snoop_fanout::max_value              1                       # Request fanout histogram
system.tol2bus.snoop_fanout::total           45807007                       # Request fanout histogram
system.tol2bus.reqLayer0.occupancy        31308853500                       # Layer occupancy (ticks)
system.tol2bus.reqLayer0.utilization              3.9                       # Layer utilization (%)
system.tol2bus.respLayer0.occupancy             45000                       # Layer occupancy (ticks)
system.tol2bus.respLayer0.utilization             0.0                       # Layer utilization (%)
system.tol2bus.respLayer1.occupancy       44828421000                       # Layer occupancy (ticks)
system.tol2bus.respLayer1.utilization             5.6                       # Layer utilization (%)

---------- End Simulation Statistics   ----------
