
---------- Begin Simulation Statistics ----------
sim_seconds                                  0.306213                       # Number of seconds simulated
sim_ticks                                306213256500                       # Number of ticks simulated
final_tick                               851155468500                       # Number of ticks from beginning of simulation (restored from checkpoints and never reset)
sim_freq                                 1000000000000                       # Frequency of simulated ticks
host_inst_rate                                 146602                       # Simulator instruction rate (inst/s)
host_op_rate                                   152793                       # Simulator op (including micro ops) rate (op/s)
host_tick_rate                               22445687                       # Simulator tick rate (ticks/s)
host_mem_usage                                3298220                       # Number of bytes of host memory used
host_seconds                                 13642.41                       # Real time elapsed on the host
sim_insts                                  2000000002                       # Number of instructions simulated
sim_ops                                    2084458404                       # Number of ops (including micro ops) simulated
system.voltage_domain.voltage                       1                       # Voltage in Volts
system.clk_domain.clock                           500                       # Clock period in ticks
system.mem_ctrls.pwrStateResidencyTicks::UNDEFINED 851155468500                       # Cumulative time (in ticks) in various power states
system.mem_ctrls.bytes_read::switch_cpus.inst          960                       # Number of bytes read from this memory
system.mem_ctrls.bytes_read::switch_cpus.data       134592                       # Number of bytes read from this memory
system.mem_ctrls.bytes_read::total             135552                       # Number of bytes read from this memory
system.mem_ctrls.bytes_inst_read::switch_cpus.inst          960                       # Number of instructions bytes read from this memory
system.mem_ctrls.bytes_inst_read::total           960                       # Number of instructions bytes read from this memory
system.mem_ctrls.bytes_written::writebacks           64                       # Number of bytes written to this memory
system.mem_ctrls.bytes_written::total              64                       # Number of bytes written to this memory
system.mem_ctrls.num_reads::switch_cpus.inst           15                       # Number of read requests responded to by this memory
system.mem_ctrls.num_reads::switch_cpus.data         2103                       # Number of read requests responded to by this memory
system.mem_ctrls.num_reads::total                2118                       # Number of read requests responded to by this memory
system.mem_ctrls.num_writes::writebacks             1                       # Number of write requests responded to by this memory
system.mem_ctrls.num_writes::total                  1                       # Number of write requests responded to by this memory
system.mem_ctrls.bw_read::switch_cpus.inst         3135                       # Total read bandwidth from this memory (bytes/s)
system.mem_ctrls.bw_read::switch_cpus.data       439537                       # Total read bandwidth from this memory (bytes/s)
system.mem_ctrls.bw_read::total                442672                       # Total read bandwidth from this memory (bytes/s)
system.mem_ctrls.bw_inst_read::switch_cpus.inst         3135                       # Instruction read bandwidth from this memory (bytes/s)
system.mem_ctrls.bw_inst_read::total             3135                       # Instruction read bandwidth from this memory (bytes/s)
system.mem_ctrls.bw_write::writebacks             209                       # Write bandwidth from this memory (bytes/s)
system.mem_ctrls.bw_write::total                  209                       # Write bandwidth from this memory (bytes/s)
system.mem_ctrls.bw_total::writebacks             209                       # Total bandwidth to/from this memory (bytes/s)
system.mem_ctrls.bw_total::switch_cpus.inst         3135                       # Total bandwidth to/from this memory (bytes/s)
system.mem_ctrls.bw_total::switch_cpus.data       439537                       # Total bandwidth to/from this memory (bytes/s)
system.mem_ctrls.bw_total::total               442881                       # Total bandwidth to/from this memory (bytes/s)
system.mem_ctrls.readReqs                        2118                       # Number of read requests accepted
system.mem_ctrls.writeReqs                          1                       # Number of write requests accepted
system.mem_ctrls.readBursts                      2118                       # Number of DRAM read bursts, including those serviced by the write queue
system.mem_ctrls.writeBursts                        1                       # Number of DRAM write bursts, including those merged in the write queue
system.mem_ctrls.bytesReadDRAM                 135552                       # Total number of bytes read from DRAM
system.mem_ctrls.bytesReadWrQ                       0                       # Total number of bytes read from write queue
system.mem_ctrls.bytesWritten                       0                       # Total number of bytes written to DRAM
system.mem_ctrls.bytesReadSys                  135552                       # Total read bytes from the system interface side
system.mem_ctrls.bytesWrittenSys                   64                       # Total written bytes from the system interface side
system.mem_ctrls.servicedByWrQ                      0                       # Number of DRAM read bursts serviced by the write queue
system.mem_ctrls.mergedWrBursts                     0                       # Number of DRAM write bursts merged with an existing one
system.mem_ctrls.neitherReadNorWriteReqs            0                       # Number of requests that are neither read nor write
system.mem_ctrls.perBankRdBursts::0               179                       # Per bank write bursts
system.mem_ctrls.perBankRdBursts::1               137                       # Per bank write bursts
system.mem_ctrls.perBankRdBursts::2               132                       # Per bank write bursts
system.mem_ctrls.perBankRdBursts::3               128                       # Per bank write bursts
system.mem_ctrls.perBankRdBursts::4               128                       # Per bank write bursts
system.mem_ctrls.perBankRdBursts::5               113                       # Per bank write bursts
system.mem_ctrls.perBankRdBursts::6               130                       # Per bank write bursts
system.mem_ctrls.perBankRdBursts::7               192                       # Per bank write bursts
system.mem_ctrls.perBankRdBursts::8               128                       # Per bank write bursts
system.mem_ctrls.perBankRdBursts::9               128                       # Per bank write bursts
system.mem_ctrls.perBankRdBursts::10               95                       # Per bank write bursts
system.mem_ctrls.perBankRdBursts::11               81                       # Per bank write bursts
system.mem_ctrls.perBankRdBursts::12              128                       # Per bank write bursts
system.mem_ctrls.perBankRdBursts::13              162                       # Per bank write bursts
system.mem_ctrls.perBankRdBursts::14              129                       # Per bank write bursts
system.mem_ctrls.perBankRdBursts::15              128                       # Per bank write bursts
system.mem_ctrls.perBankWrBursts::0                 0                       # Per bank write bursts
system.mem_ctrls.perBankWrBursts::1                 0                       # Per bank write bursts
system.mem_ctrls.perBankWrBursts::2                 0                       # Per bank write bursts
system.mem_ctrls.perBankWrBursts::3                 0                       # Per bank write bursts
system.mem_ctrls.perBankWrBursts::4                 0                       # Per bank write bursts
system.mem_ctrls.perBankWrBursts::5                 0                       # Per bank write bursts
system.mem_ctrls.perBankWrBursts::6                 0                       # Per bank write bursts
system.mem_ctrls.perBankWrBursts::7                 0                       # Per bank write bursts
system.mem_ctrls.perBankWrBursts::8                 0                       # Per bank write bursts
system.mem_ctrls.perBankWrBursts::9                 0                       # Per bank write bursts
system.mem_ctrls.perBankWrBursts::10                0                       # Per bank write bursts
system.mem_ctrls.perBankWrBursts::11                0                       # Per bank write bursts
system.mem_ctrls.perBankWrBursts::12                0                       # Per bank write bursts
system.mem_ctrls.perBankWrBursts::13                0                       # Per bank write bursts
system.mem_ctrls.perBankWrBursts::14                0                       # Per bank write bursts
system.mem_ctrls.perBankWrBursts::15                0                       # Per bank write bursts
system.mem_ctrls.numRdRetry                         0                       # Number of times read queue was full causing retry
system.mem_ctrls.numWrRetry                         0                       # Number of times write queue was full causing retry
system.mem_ctrls.totGap                  278527546000                       # Total gap between requests
system.mem_ctrls.readPktSize::0                     0                       # Read request sizes (log2)
system.mem_ctrls.readPktSize::1                     0                       # Read request sizes (log2)
system.mem_ctrls.readPktSize::2                     0                       # Read request sizes (log2)
system.mem_ctrls.readPktSize::3                     0                       # Read request sizes (log2)
system.mem_ctrls.readPktSize::4                     0                       # Read request sizes (log2)
system.mem_ctrls.readPktSize::5                     0                       # Read request sizes (log2)
system.mem_ctrls.readPktSize::6                  2118                       # Read request sizes (log2)
system.mem_ctrls.writePktSize::0                    0                       # Write request sizes (log2)
system.mem_ctrls.writePktSize::1                    0                       # Write request sizes (log2)
system.mem_ctrls.writePktSize::2                    0                       # Write request sizes (log2)
system.mem_ctrls.writePktSize::3                    0                       # Write request sizes (log2)
system.mem_ctrls.writePktSize::4                    0                       # Write request sizes (log2)
system.mem_ctrls.writePktSize::5                    0                       # Write request sizes (log2)
system.mem_ctrls.writePktSize::6                    1                       # Write request sizes (log2)
system.mem_ctrls.rdQLenPdf::0                     749                       # What read queue length does an incoming req see
system.mem_ctrls.rdQLenPdf::1                     691                       # What read queue length does an incoming req see
system.mem_ctrls.rdQLenPdf::2                     675                       # What read queue length does an incoming req see
system.mem_ctrls.rdQLenPdf::3                       1                       # What read queue length does an incoming req see
system.mem_ctrls.rdQLenPdf::4                       1                       # What read queue length does an incoming req see
system.mem_ctrls.rdQLenPdf::5                       1                       # What read queue length does an incoming req see
system.mem_ctrls.rdQLenPdf::6                       0                       # What read queue length does an incoming req see
system.mem_ctrls.rdQLenPdf::7                       0                       # What read queue length does an incoming req see
system.mem_ctrls.rdQLenPdf::8                       0                       # What read queue length does an incoming req see
system.mem_ctrls.rdQLenPdf::9                       0                       # What read queue length does an incoming req see
system.mem_ctrls.rdQLenPdf::10                      0                       # What read queue length does an incoming req see
system.mem_ctrls.rdQLenPdf::11                      0                       # What read queue length does an incoming req see
system.mem_ctrls.rdQLenPdf::12                      0                       # What read queue length does an incoming req see
system.mem_ctrls.rdQLenPdf::13                      0                       # What read queue length does an incoming req see
system.mem_ctrls.rdQLenPdf::14                      0                       # What read queue length does an incoming req see
system.mem_ctrls.rdQLenPdf::15                      0                       # What read queue length does an incoming req see
system.mem_ctrls.rdQLenPdf::16                      0                       # What read queue length does an incoming req see
system.mem_ctrls.rdQLenPdf::17                      0                       # What read queue length does an incoming req see
system.mem_ctrls.rdQLenPdf::18                      0                       # What read queue length does an incoming req see
system.mem_ctrls.rdQLenPdf::19                      0                       # What read queue length does an incoming req see
system.mem_ctrls.rdQLenPdf::20                      0                       # What read queue length does an incoming req see
system.mem_ctrls.rdQLenPdf::21                      0                       # What read queue length does an incoming req see
system.mem_ctrls.rdQLenPdf::22                      0                       # What read queue length does an incoming req see
system.mem_ctrls.rdQLenPdf::23                      0                       # What read queue length does an incoming req see
system.mem_ctrls.rdQLenPdf::24                      0                       # What read queue length does an incoming req see
system.mem_ctrls.rdQLenPdf::25                      0                       # What read queue length does an incoming req see
system.mem_ctrls.rdQLenPdf::26                      0                       # What read queue length does an incoming req see
system.mem_ctrls.rdQLenPdf::27                      0                       # What read queue length does an incoming req see
system.mem_ctrls.rdQLenPdf::28                      0                       # What read queue length does an incoming req see
system.mem_ctrls.rdQLenPdf::29                      0                       # What read queue length does an incoming req see
system.mem_ctrls.rdQLenPdf::30                      0                       # What read queue length does an incoming req see
system.mem_ctrls.rdQLenPdf::31                      0                       # What read queue length does an incoming req see
system.mem_ctrls.wrQLenPdf::0                       1                       # What write queue length does an incoming req see
system.mem_ctrls.wrQLenPdf::1                       0                       # What write queue length does an incoming req see
system.mem_ctrls.wrQLenPdf::2                       0                       # What write queue length does an incoming req see
system.mem_ctrls.wrQLenPdf::3                       0                       # What write queue length does an incoming req see
system.mem_ctrls.wrQLenPdf::4                       0                       # What write queue length does an incoming req see
system.mem_ctrls.wrQLenPdf::5                       0                       # What write queue length does an incoming req see
system.mem_ctrls.wrQLenPdf::6                       0                       # What write queue length does an incoming req see
system.mem_ctrls.wrQLenPdf::7                       0                       # What write queue length does an incoming req see
system.mem_ctrls.wrQLenPdf::8                       0                       # What write queue length does an incoming req see
system.mem_ctrls.wrQLenPdf::9                       0                       # What write queue length does an incoming req see
system.mem_ctrls.wrQLenPdf::10                      0                       # What write queue length does an incoming req see
system.mem_ctrls.wrQLenPdf::11                      0                       # What write queue length does an incoming req see
system.mem_ctrls.wrQLenPdf::12                      0                       # What write queue length does an incoming req see
system.mem_ctrls.wrQLenPdf::13                      0                       # What write queue length does an incoming req see
system.mem_ctrls.wrQLenPdf::14                      0                       # What write queue length does an incoming req see
system.mem_ctrls.wrQLenPdf::15                      0                       # What write queue length does an incoming req see
system.mem_ctrls.wrQLenPdf::16                      0                       # What write queue length does an incoming req see
system.mem_ctrls.wrQLenPdf::17                      0                       # What write queue length does an incoming req see
system.mem_ctrls.wrQLenPdf::18                      0                       # What write queue length does an incoming req see
system.mem_ctrls.wrQLenPdf::19                      0                       # What write queue length does an incoming req see
system.mem_ctrls.wrQLenPdf::20                      0                       # What write queue length does an incoming req see
system.mem_ctrls.wrQLenPdf::21                      0                       # What write queue length does an incoming req see
system.mem_ctrls.wrQLenPdf::22                      0                       # What write queue length does an incoming req see
system.mem_ctrls.wrQLenPdf::23                      0                       # What write queue length does an incoming req see
system.mem_ctrls.wrQLenPdf::24                      0                       # What write queue length does an incoming req see
system.mem_ctrls.wrQLenPdf::25                      0                       # What write queue length does an incoming req see
system.mem_ctrls.wrQLenPdf::26                      0                       # What write queue length does an incoming req see
system.mem_ctrls.wrQLenPdf::27                      0                       # What write queue length does an incoming req see
system.mem_ctrls.wrQLenPdf::28                      0                       # What write queue length does an incoming req see
system.mem_ctrls.wrQLenPdf::29                      0                       # What write queue length does an incoming req see
system.mem_ctrls.wrQLenPdf::30                      0                       # What write queue length does an incoming req see
system.mem_ctrls.wrQLenPdf::31                      0                       # What write queue length does an incoming req see
system.mem_ctrls.wrQLenPdf::32                      0                       # What write queue length does an incoming req see
system.mem_ctrls.wrQLenPdf::33                      0                       # What write queue length does an incoming req see
system.mem_ctrls.wrQLenPdf::34                      0                       # What write queue length does an incoming req see
system.mem_ctrls.wrQLenPdf::35                      0                       # What write queue length does an incoming req see
system.mem_ctrls.wrQLenPdf::36                      0                       # What write queue length does an incoming req see
system.mem_ctrls.wrQLenPdf::37                      0                       # What write queue length does an incoming req see
system.mem_ctrls.wrQLenPdf::38                      0                       # What write queue length does an incoming req see
system.mem_ctrls.wrQLenPdf::39                      0                       # What write queue length does an incoming req see
system.mem_ctrls.wrQLenPdf::40                      0                       # What write queue length does an incoming req see
system.mem_ctrls.wrQLenPdf::41                      0                       # What write queue length does an incoming req see
system.mem_ctrls.wrQLenPdf::42                      0                       # What write queue length does an incoming req see
system.mem_ctrls.wrQLenPdf::43                      0                       # What write queue length does an incoming req see
system.mem_ctrls.wrQLenPdf::44                      0                       # What write queue length does an incoming req see
system.mem_ctrls.wrQLenPdf::45                      0                       # What write queue length does an incoming req see
system.mem_ctrls.wrQLenPdf::46                      0                       # What write queue length does an incoming req see
system.mem_ctrls.wrQLenPdf::47                      0                       # What write queue length does an incoming req see
system.mem_ctrls.wrQLenPdf::48                      0                       # What write queue length does an incoming req see
system.mem_ctrls.wrQLenPdf::49                      0                       # What write queue length does an incoming req see
system.mem_ctrls.wrQLenPdf::50                      0                       # What write queue length does an incoming req see
system.mem_ctrls.wrQLenPdf::51                      0                       # What write queue length does an incoming req see
system.mem_ctrls.wrQLenPdf::52                      0                       # What write queue length does an incoming req see
system.mem_ctrls.wrQLenPdf::53                      0                       # What write queue length does an incoming req see
system.mem_ctrls.wrQLenPdf::54                      0                       # What write queue length does an incoming req see
system.mem_ctrls.wrQLenPdf::55                      0                       # What write queue length does an incoming req see
system.mem_ctrls.wrQLenPdf::56                      0                       # What write queue length does an incoming req see
system.mem_ctrls.wrQLenPdf::57                      0                       # What write queue length does an incoming req see
system.mem_ctrls.wrQLenPdf::58                      0                       # What write queue length does an incoming req see
system.mem_ctrls.wrQLenPdf::59                      0                       # What write queue length does an incoming req see
system.mem_ctrls.wrQLenPdf::60                      0                       # What write queue length does an incoming req see
system.mem_ctrls.wrQLenPdf::61                      0                       # What write queue length does an incoming req see
system.mem_ctrls.wrQLenPdf::62                      0                       # What write queue length does an incoming req see
system.mem_ctrls.wrQLenPdf::63                      0                       # What write queue length does an incoming req see
system.mem_ctrls.bytesPerActivate::samples          205                       # Bytes accessed per row activation
system.mem_ctrls.bytesPerActivate::mean    661.229268                       # Bytes accessed per row activation
system.mem_ctrls.bytesPerActivate::gmean   434.784477                       # Bytes accessed per row activation
system.mem_ctrls.bytesPerActivate::stdev   389.849407                       # Bytes accessed per row activation
system.mem_ctrls.bytesPerActivate::0-127           48     23.41%     23.41% # Bytes accessed per row activation
system.mem_ctrls.bytesPerActivate::128-255            7      3.41%     26.83% # Bytes accessed per row activation
system.mem_ctrls.bytesPerActivate::256-383            3      1.46%     28.29% # Bytes accessed per row activation
system.mem_ctrls.bytesPerActivate::384-511            8      3.90%     32.20% # Bytes accessed per row activation
system.mem_ctrls.bytesPerActivate::512-639           10      4.88%     37.07% # Bytes accessed per row activation
system.mem_ctrls.bytesPerActivate::640-767            3      1.46%     38.54% # Bytes accessed per row activation
system.mem_ctrls.bytesPerActivate::768-895            4      1.95%     40.49% # Bytes accessed per row activation
system.mem_ctrls.bytesPerActivate::896-1023          119     58.05%     98.54% # Bytes accessed per row activation
system.mem_ctrls.bytesPerActivate::1024-1151            3      1.46%    100.00% # Bytes accessed per row activation
system.mem_ctrls.bytesPerActivate::total          205                       # Bytes accessed per row activation
system.mem_ctrls.totQLat                     38440250                       # Total ticks spent queuing
system.mem_ctrls.totMemAccLat                78152750                       # Total ticks spent from burst creation until serviced by the DRAM
system.mem_ctrls.totBusLat                   10590000                       # Total ticks spent in databus transfers
system.mem_ctrls.avgQLat                     18149.32                       # Average queueing delay per DRAM burst
system.mem_ctrls.avgBusLat                    5000.00                       # Average bus latency per DRAM burst
system.mem_ctrls.avgMemAccLat                36899.32                       # Average memory access latency per DRAM burst
system.mem_ctrls.avgRdBW                         0.44                       # Average DRAM read bandwidth in MiByte/s
system.mem_ctrls.avgWrBW                         0.00                       # Average achieved write bandwidth in MiByte/s
system.mem_ctrls.avgRdBWSys                      0.44                       # Average system read bandwidth in MiByte/s
system.mem_ctrls.avgWrBWSys                      0.00                       # Average system write bandwidth in MiByte/s
system.mem_ctrls.peakBW                      12800.00                       # Theoretical peak bandwidth in MiByte/s
system.mem_ctrls.busUtil                         0.00                       # Data bus utilization in percentage
system.mem_ctrls.busUtilRead                     0.00                       # Data bus utilization in percentage for reads
system.mem_ctrls.busUtilWrite                    0.00                       # Data bus utilization in percentage for writes
system.mem_ctrls.avgRdQLen                       1.13                       # Average read queue length when enqueuing
system.mem_ctrls.avgWrQLen                       0.28                       # Average write queue length when enqueuing
system.mem_ctrls.readRowHits                     1913                       # Number of row buffer hits during reads
system.mem_ctrls.writeRowHits                       0                       # Number of row buffer hits during writes
system.mem_ctrls.readRowHitRate                 90.32                       # Row buffer hit rate for reads
system.mem_ctrls.writeRowHitRate                 0.00                       # Row buffer hit rate for writes
system.mem_ctrls.avgGap                  131442919.30                       # Average gap between requests
system.mem_ctrls.pageHitRate                    90.28                       # Row buffer hit rate, read and write combined
system.mem_ctrls_0.actEnergy                   685440                       # Energy for activate commands per rank (pJ)
system.mem_ctrls_0.preEnergy                   364320                       # Energy for precharge commands per rank (pJ)
system.mem_ctrls_0.readEnergy                 8132460                       # Energy for read commands per rank (pJ)
system.mem_ctrls_0.writeEnergy                      0                       # Energy for write commands per rank (pJ)
system.mem_ctrls_0.refreshEnergy         51015120.000000                       # Energy for refresh commands per rank (pJ)
system.mem_ctrls_0.actBackEnergy             20856870                       # Energy for active background per rank (pJ)
system.mem_ctrls_0.preBackEnergy              5110080                       # Energy for precharge background per rank (pJ)
system.mem_ctrls_0.actPowerDownEnergy       182393730                       # Energy for active power-down per rank (pJ)
system.mem_ctrls_0.prePowerDownEnergy        38588160                       # Energy for precharge power-down per rank (pJ)
system.mem_ctrls_0.selfRefreshEnergy      73363522980                       # Energy for self refresh per rank (pJ)
system.mem_ctrls_0.totalEnergy            73670669160                       # Total energy per rank (pJ)
system.mem_ctrls_0.averagePower            240.586152                       # Core power per rank (mW)
system.mem_ctrls_0.totalIdleTime         279943175500                       # Total Idle time Per DRAM Rank
system.mem_ctrls_0.memoryStateTime::IDLE     11296250                       # Time in different power states
system.mem_ctrls_0.memoryStateTime::REF      21658000                       # Time in different power states
system.mem_ctrls_0.memoryStateTime::SREF 305653734750                       # Time in different power states
system.mem_ctrls_0.memoryStateTime::PRE_PDN    100496250                       # Time in different power states
system.mem_ctrls_0.memoryStateTime::ACT      26066750                       # Time in different power states
system.mem_ctrls_0.memoryStateTime::ACT_PDN    400004500                       # Time in different power states
system.mem_ctrls_1.actEnergy                   778260                       # Energy for activate commands per rank (pJ)
system.mem_ctrls_1.preEnergy                   413655                       # Energy for precharge commands per rank (pJ)
system.mem_ctrls_1.readEnergy                 6990060                       # Energy for read commands per rank (pJ)
system.mem_ctrls_1.writeEnergy                      0                       # Energy for write commands per rank (pJ)
system.mem_ctrls_1.refreshEnergy         35034480.000000                       # Energy for refresh commands per rank (pJ)
system.mem_ctrls_1.actBackEnergy             16048350                       # Energy for active background per rank (pJ)
system.mem_ctrls_1.preBackEnergy              4082400                       # Energy for precharge background per rank (pJ)
system.mem_ctrls_1.actPowerDownEnergy       154408440                       # Energy for active power-down per rank (pJ)
system.mem_ctrls_1.prePowerDownEnergy        11725920                       # Energy for precharge power-down per rank (pJ)
system.mem_ctrls_1.selfRefreshEnergy      73393825365                       # Energy for self refresh per rank (pJ)
system.mem_ctrls_1.totalEnergy            73623354960                       # Total energy per rank (pJ)
system.mem_ctrls_1.averagePower            240.431639                       # Core power per rank (mW)
system.mem_ctrls_1.totalIdleTime         279956251750                       # Total Idle time Per DRAM Rank
system.mem_ctrls_1.memoryStateTime::IDLE      9130250                       # Time in different power states
system.mem_ctrls_1.memoryStateTime::REF      14850000                       # Time in different power states
system.mem_ctrls_1.memoryStateTime::SREF 305798174000                       # Time in different power states
system.mem_ctrls_1.memoryStateTime::PRE_PDN     30543250                       # Time in different power states
system.mem_ctrls_1.memoryStateTime::ACT      21967500                       # Time in different power states
system.mem_ctrls_1.memoryStateTime::ACT_PDN    338591500                       # Time in different power states
system.pwrStateResidencyTicks::UNDEFINED 851155468500                       # Cumulative time (in ticks) in various power states
system.cpu_voltage_domain.voltage                   1                       # Voltage in Volts
system.cpu_clk_domain.clock                       500                       # Clock period in ticks
system.cpu.dstage2_mmu.stage2_tlb.walker.pwrStateResidencyTicks::UNDEFINED 851155468500                       # Cumulative time (in ticks) in various power states
system.cpu.dstage2_mmu.stage2_tlb.walker.walks            0                       # Table walker walks requested
system.cpu.dstage2_mmu.stage2_tlb.walker.walkRequestOrigin_Requested::Data            0                       # Table walker requests started/completed, data/inst
system.cpu.dstage2_mmu.stage2_tlb.walker.walkRequestOrigin_Requested::Inst            0                       # Table walker requests started/completed, data/inst
system.cpu.dstage2_mmu.stage2_tlb.walker.walkRequestOrigin_Requested::total            0                       # Table walker requests started/completed, data/inst
system.cpu.dstage2_mmu.stage2_tlb.walker.walkRequestOrigin_Completed::Data            0                       # Table walker requests started/completed, data/inst
system.cpu.dstage2_mmu.stage2_tlb.walker.walkRequestOrigin_Completed::Inst            0                       # Table walker requests started/completed, data/inst
system.cpu.dstage2_mmu.stage2_tlb.walker.walkRequestOrigin_Completed::total            0                       # Table walker requests started/completed, data/inst
system.cpu.dstage2_mmu.stage2_tlb.walker.walkRequestOrigin::total            0                       # Table walker requests started/completed, data/inst
system.cpu.dstage2_mmu.stage2_tlb.inst_hits            0                       # ITB inst hits
system.cpu.dstage2_mmu.stage2_tlb.inst_misses            0                       # ITB inst misses
system.cpu.dstage2_mmu.stage2_tlb.read_hits            0                       # DTB read hits
system.cpu.dstage2_mmu.stage2_tlb.read_misses            0                       # DTB read misses
system.cpu.dstage2_mmu.stage2_tlb.write_hits            0                       # DTB write hits
system.cpu.dstage2_mmu.stage2_tlb.write_misses            0                       # DTB write misses
system.cpu.dstage2_mmu.stage2_tlb.flush_tlb            0                       # Number of times complete TLB was flushed
system.cpu.dstage2_mmu.stage2_tlb.flush_tlb_mva            0                       # Number of times TLB was flushed by MVA
system.cpu.dstage2_mmu.stage2_tlb.flush_tlb_mva_asid            0                       # Number of times TLB was flushed by MVA & ASID
system.cpu.dstage2_mmu.stage2_tlb.flush_tlb_asid            0                       # Number of times TLB was flushed by ASID
system.cpu.dstage2_mmu.stage2_tlb.flush_entries            0                       # Number of entries that have been flushed from TLB
system.cpu.dstage2_mmu.stage2_tlb.align_faults            0                       # Number of TLB faults due to alignment restrictions
system.cpu.dstage2_mmu.stage2_tlb.prefetch_faults            0                       # Number of TLB faults due to prefetch
system.cpu.dstage2_mmu.stage2_tlb.domain_faults            0                       # Number of TLB faults due to domain restrictions
system.cpu.dstage2_mmu.stage2_tlb.perms_faults            0                       # Number of TLB faults due to permissions restrictions
system.cpu.dstage2_mmu.stage2_tlb.read_accesses            0                       # DTB read accesses
system.cpu.dstage2_mmu.stage2_tlb.write_accesses            0                       # DTB write accesses
system.cpu.dstage2_mmu.stage2_tlb.inst_accesses            0                       # ITB inst accesses
system.cpu.dstage2_mmu.stage2_tlb.hits              0                       # DTB hits
system.cpu.dstage2_mmu.stage2_tlb.misses            0                       # DTB misses
system.cpu.dstage2_mmu.stage2_tlb.accesses            0                       # DTB accesses
system.cpu.dtb.walker.pwrStateResidencyTicks::UNDEFINED 851155468500                       # Cumulative time (in ticks) in various power states
system.cpu.dtb.walker.walks                         0                       # Table walker walks requested
system.cpu.dtb.walker.walkRequestOrigin_Requested::Data            0                       # Table walker requests started/completed, data/inst
system.cpu.dtb.walker.walkRequestOrigin_Requested::Inst            0                       # Table walker requests started/completed, data/inst
system.cpu.dtb.walker.walkRequestOrigin_Requested::total            0                       # Table walker requests started/completed, data/inst
system.cpu.dtb.walker.walkRequestOrigin_Completed::Data            0                       # Table walker requests started/completed, data/inst
system.cpu.dtb.walker.walkRequestOrigin_Completed::Inst            0                       # Table walker requests started/completed, data/inst
system.cpu.dtb.walker.walkRequestOrigin_Completed::total            0                       # Table walker requests started/completed, data/inst
system.cpu.dtb.walker.walkRequestOrigin::total            0                       # Table walker requests started/completed, data/inst
system.cpu.dtb.inst_hits                            0                       # ITB inst hits
system.cpu.dtb.inst_misses                          0                       # ITB inst misses
system.cpu.dtb.read_hits                            0                       # DTB read hits
system.cpu.dtb.read_misses                          0                       # DTB read misses
system.cpu.dtb.write_hits                           0                       # DTB write hits
system.cpu.dtb.write_misses                         0                       # DTB write misses
system.cpu.dtb.flush_tlb                            0                       # Number of times complete TLB was flushed
system.cpu.dtb.flush_tlb_mva                        0                       # Number of times TLB was flushed by MVA
system.cpu.dtb.flush_tlb_mva_asid                   0                       # Number of times TLB was flushed by MVA & ASID
system.cpu.dtb.flush_tlb_asid                       0                       # Number of times TLB was flushed by ASID
system.cpu.dtb.flush_entries                        0                       # Number of entries that have been flushed from TLB
system.cpu.dtb.align_faults                         0                       # Number of TLB faults due to alignment restrictions
system.cpu.dtb.prefetch_faults                      0                       # Number of TLB faults due to prefetch
system.cpu.dtb.domain_faults                        0                       # Number of TLB faults due to domain restrictions
system.cpu.dtb.perms_faults                         0                       # Number of TLB faults due to permissions restrictions
system.cpu.dtb.read_accesses                        0                       # DTB read accesses
system.cpu.dtb.write_accesses                       0                       # DTB write accesses
system.cpu.dtb.inst_accesses                        0                       # ITB inst accesses
system.cpu.dtb.hits                                 0                       # DTB hits
system.cpu.dtb.misses                               0                       # DTB misses
system.cpu.dtb.accesses                             0                       # DTB accesses
system.cpu.istage2_mmu.stage2_tlb.walker.pwrStateResidencyTicks::UNDEFINED 851155468500                       # Cumulative time (in ticks) in various power states
system.cpu.istage2_mmu.stage2_tlb.walker.walks            0                       # Table walker walks requested
system.cpu.istage2_mmu.stage2_tlb.walker.walkRequestOrigin_Requested::Data            0                       # Table walker requests started/completed, data/inst
system.cpu.istage2_mmu.stage2_tlb.walker.walkRequestOrigin_Requested::Inst            0                       # Table walker requests started/completed, data/inst
system.cpu.istage2_mmu.stage2_tlb.walker.walkRequestOrigin_Requested::total            0                       # Table walker requests started/completed, data/inst
system.cpu.istage2_mmu.stage2_tlb.walker.walkRequestOrigin_Completed::Data            0                       # Table walker requests started/completed, data/inst
system.cpu.istage2_mmu.stage2_tlb.walker.walkRequestOrigin_Completed::Inst            0                       # Table walker requests started/completed, data/inst
system.cpu.istage2_mmu.stage2_tlb.walker.walkRequestOrigin_Completed::total            0                       # Table walker requests started/completed, data/inst
system.cpu.istage2_mmu.stage2_tlb.walker.walkRequestOrigin::total            0                       # Table walker requests started/completed, data/inst
system.cpu.istage2_mmu.stage2_tlb.inst_hits            0                       # ITB inst hits
system.cpu.istage2_mmu.stage2_tlb.inst_misses            0                       # ITB inst misses
system.cpu.istage2_mmu.stage2_tlb.read_hits            0                       # DTB read hits
system.cpu.istage2_mmu.stage2_tlb.read_misses            0                       # DTB read misses
system.cpu.istage2_mmu.stage2_tlb.write_hits            0                       # DTB write hits
system.cpu.istage2_mmu.stage2_tlb.write_misses            0                       # DTB write misses
system.cpu.istage2_mmu.stage2_tlb.flush_tlb            0                       # Number of times complete TLB was flushed
system.cpu.istage2_mmu.stage2_tlb.flush_tlb_mva            0                       # Number of times TLB was flushed by MVA
system.cpu.istage2_mmu.stage2_tlb.flush_tlb_mva_asid            0                       # Number of times TLB was flushed by MVA & ASID
system.cpu.istage2_mmu.stage2_tlb.flush_tlb_asid            0                       # Number of times TLB was flushed by ASID
system.cpu.istage2_mmu.stage2_tlb.flush_entries            0                       # Number of entries that have been flushed from TLB
system.cpu.istage2_mmu.stage2_tlb.align_faults            0                       # Number of TLB faults due to alignment restrictions
system.cpu.istage2_mmu.stage2_tlb.prefetch_faults            0                       # Number of TLB faults due to prefetch
system.cpu.istage2_mmu.stage2_tlb.domain_faults            0                       # Number of TLB faults due to domain restrictions
system.cpu.istage2_mmu.stage2_tlb.perms_faults            0                       # Number of TLB faults due to permissions restrictions
system.cpu.istage2_mmu.stage2_tlb.read_accesses            0                       # DTB read accesses
system.cpu.istage2_mmu.stage2_tlb.write_accesses            0                       # DTB write accesses
system.cpu.istage2_mmu.stage2_tlb.inst_accesses            0                       # ITB inst accesses
system.cpu.istage2_mmu.stage2_tlb.hits              0                       # DTB hits
system.cpu.istage2_mmu.stage2_tlb.misses            0                       # DTB misses
system.cpu.istage2_mmu.stage2_tlb.accesses            0                       # DTB accesses
system.cpu.itb.walker.pwrStateResidencyTicks::UNDEFINED 851155468500                       # Cumulative time (in ticks) in various power states
system.cpu.itb.walker.walks                         0                       # Table walker walks requested
system.cpu.itb.walker.walkRequestOrigin_Requested::Data            0                       # Table walker requests started/completed, data/inst
system.cpu.itb.walker.walkRequestOrigin_Requested::Inst            0                       # Table walker requests started/completed, data/inst
system.cpu.itb.walker.walkRequestOrigin_Requested::total            0                       # Table walker requests started/completed, data/inst
system.cpu.itb.walker.walkRequestOrigin_Completed::Data            0                       # Table walker requests started/completed, data/inst
system.cpu.itb.walker.walkRequestOrigin_Completed::Inst            0                       # Table walker requests started/completed, data/inst
system.cpu.itb.walker.walkRequestOrigin_Completed::total            0                       # Table walker requests started/completed, data/inst
system.cpu.itb.walker.walkRequestOrigin::total            0                       # Table walker requests started/completed, data/inst
system.cpu.itb.inst_hits                            0                       # ITB inst hits
system.cpu.itb.inst_misses                          0                       # ITB inst misses
system.cpu.itb.read_hits                            0                       # DTB read hits
system.cpu.itb.read_misses                          0                       # DTB read misses
system.cpu.itb.write_hits                           0                       # DTB write hits
system.cpu.itb.write_misses                         0                       # DTB write misses
system.cpu.itb.flush_tlb                            0                       # Number of times complete TLB was flushed
system.cpu.itb.flush_tlb_mva                        0                       # Number of times TLB was flushed by MVA
system.cpu.itb.flush_tlb_mva_asid                   0                       # Number of times TLB was flushed by MVA & ASID
system.cpu.itb.flush_tlb_asid                       0                       # Number of times TLB was flushed by ASID
system.cpu.itb.flush_entries                        0                       # Number of entries that have been flushed from TLB
system.cpu.itb.align_faults                         0                       # Number of TLB faults due to alignment restrictions
system.cpu.itb.prefetch_faults                      0                       # Number of TLB faults due to prefetch
system.cpu.itb.domain_faults                        0                       # Number of TLB faults due to domain restrictions
system.cpu.itb.perms_faults                         0                       # Number of TLB faults due to permissions restrictions
system.cpu.itb.read_accesses                        0                       # DTB read accesses
system.cpu.itb.write_accesses                       0                       # DTB write accesses
system.cpu.itb.inst_accesses                        0                       # ITB inst accesses
system.cpu.itb.hits                                 0                       # DTB hits
system.cpu.itb.misses                               0                       # DTB misses
system.cpu.itb.accesses                             0                       # DTB accesses
system.cpu.workload.numSyscalls                     3                       # Number of system calls
system.cpu.pwrStateResidencyTicks::ON    851155468500                       # Cumulative time (in ticks) in various power states
system.cpu.numCycles                                0                       # number of cpu cycles simulated
system.cpu.numWorkItemsStarted                      0                       # number of work items this cpu started
system.cpu.numWorkItemsCompleted                    0                       # number of work items this cpu completed
system.cpu.committedInsts                           0                       # Number of instructions committed
system.cpu.committedOps                             0                       # Number of ops (including micro ops) committed
system.cpu.num_int_alu_accesses                     0                       # Number of integer alu accesses
system.cpu.num_fp_alu_accesses                      0                       # Number of float alu accesses
system.cpu.num_vec_alu_accesses                     0                       # Number of vector alu accesses
system.cpu.num_func_calls                           0                       # number of times a function call or return occured
system.cpu.num_conditional_control_insts            0                       # number of instructions that are conditional controls
system.cpu.num_int_insts                            0                       # number of integer instructions
system.cpu.num_fp_insts                             0                       # number of float instructions
system.cpu.num_vec_insts                            0                       # number of vector instructions
system.cpu.num_int_register_reads                   0                       # number of times the integer registers were read
system.cpu.num_int_register_writes                  0                       # number of times the integer registers were written
system.cpu.num_fp_register_reads                    0                       # number of times the floating registers were read
system.cpu.num_fp_register_writes                   0                       # number of times the floating registers were written
system.cpu.num_vec_register_reads                   0                       # number of times the vector registers were read
system.cpu.num_vec_register_writes                  0                       # number of times the vector registers were written
system.cpu.num_mem_refs                             0                       # number of memory refs
system.cpu.num_load_insts                           0                       # Number of load instructions
system.cpu.num_store_insts                          0                       # Number of store instructions
system.cpu.num_idle_cycles                          0                       # Number of idle cycles
system.cpu.num_busy_cycles                          0                       # Number of busy cycles
system.cpu.not_idle_fraction                        1                       # Percentage of non-idle cycles
system.cpu.idle_fraction                            0                       # Percentage of idle cycles
system.cpu.op_class::No_OpClass                     0                       # Class of executed instruction
system.cpu.op_class::IntAlu                         0                       # Class of executed instruction
system.cpu.op_class::IntMult                        0                       # Class of executed instruction
system.cpu.op_class::IntDiv                         0                       # Class of executed instruction
system.cpu.op_class::FloatAdd                       0                       # Class of executed instruction
system.cpu.op_class::FloatCmp                       0                       # Class of executed instruction
system.cpu.op_class::FloatCvt                       0                       # Class of executed instruction
system.cpu.op_class::FloatMult                      0                       # Class of executed instruction
system.cpu.op_class::FloatMultAcc                   0                       # Class of executed instruction
system.cpu.op_class::FloatDiv                       0                       # Class of executed instruction
system.cpu.op_class::FloatMisc                      0                       # Class of executed instruction
system.cpu.op_class::FloatSqrt                      0                       # Class of executed instruction
system.cpu.op_class::SimdAdd                        0                       # Class of executed instruction
system.cpu.op_class::SimdAddAcc                     0                       # Class of executed instruction
system.cpu.op_class::SimdAlu                        0                       # Class of executed instruction
system.cpu.op_class::SimdCmp                        0                       # Class of executed instruction
system.cpu.op_class::SimdCvt                        0                       # Class of executed instruction
system.cpu.op_class::SimdMisc                       0                       # Class of executed instruction
system.cpu.op_class::SimdMult                       0                       # Class of executed instruction
system.cpu.op_class::SimdMultAcc                    0                       # Class of executed instruction
system.cpu.op_class::SimdShift                      0                       # Class of executed instruction
system.cpu.op_class::SimdShiftAcc                   0                       # Class of executed instruction
system.cpu.op_class::SimdSqrt                       0                       # Class of executed instruction
system.cpu.op_class::SimdFloatAdd                   0                       # Class of executed instruction
system.cpu.op_class::SimdFloatAlu                   0                       # Class of executed instruction
system.cpu.op_class::SimdFloatCmp                   0                       # Class of executed instruction
system.cpu.op_class::SimdFloatCvt                   0                       # Class of executed instruction
system.cpu.op_class::SimdFloatDiv                   0                       # Class of executed instruction
system.cpu.op_class::SimdFloatMisc                  0                       # Class of executed instruction
system.cpu.op_class::SimdFloatMult                  0                       # Class of executed instruction
system.cpu.op_class::SimdFloatMultAcc               0                       # Class of executed instruction
system.cpu.op_class::SimdFloatSqrt                  0                       # Class of executed instruction
system.cpu.op_class::MemRead                        0                       # Class of executed instruction
system.cpu.op_class::MemWrite                       0                       # Class of executed instruction
system.cpu.op_class::FloatMemRead                   0                       # Class of executed instruction
system.cpu.op_class::FloatMemWrite                  0                       # Class of executed instruction
system.cpu.op_class::IprAccess                      0                       # Class of executed instruction
system.cpu.op_class::InstPrefetch                   0                       # Class of executed instruction
system.cpu.op_class::total                          0                       # Class of executed instruction
system.cpu.dcache.tags.pwrStateResidencyTicks::UNDEFINED 851155468500                       # Cumulative time (in ticks) in various power states
system.cpu.dcache.tags.replacements           6137195                       # number of replacements
system.cpu.dcache.tags.tagsinuse                 1024                       # Cycle average of tags in use
system.cpu.dcache.tags.total_refs           443737241                       # Total number of references to valid blocks.
system.cpu.dcache.tags.sampled_refs           6138219                       # Sample count of references to valid blocks.
system.cpu.dcache.tags.avg_refs             72.290878                       # Average number of references to valid blocks.
system.cpu.dcache.tags.warmup_cycle                 0                       # Cycle when the warmup percentage was hit.
system.cpu.dcache.tags.occ_blocks::cpu.data     0.281840                       # Average occupied blocks per requestor
system.cpu.dcache.tags.occ_blocks::switch_cpus.data  1023.718160                       # Average occupied blocks per requestor
system.cpu.dcache.tags.occ_percent::cpu.data     0.000275                       # Average percentage of cache occupancy
system.cpu.dcache.tags.occ_percent::switch_cpus.data     0.999725                       # Average percentage of cache occupancy
system.cpu.dcache.tags.occ_percent::total            1                       # Average percentage of cache occupancy
system.cpu.dcache.tags.occ_task_id_blocks::1024         1024                       # Occupied blocks per task id
system.cpu.dcache.tags.age_task_id_blocks_1024::0           69                       # Occupied blocks per task id
system.cpu.dcache.tags.age_task_id_blocks_1024::1          654                       # Occupied blocks per task id
system.cpu.dcache.tags.age_task_id_blocks_1024::2          301                       # Occupied blocks per task id
system.cpu.dcache.tags.occ_task_id_percent::1024            1                       # Percentage of cache occupancy per task id
system.cpu.dcache.tags.tag_accesses         919026041                       # Number of tag accesses
system.cpu.dcache.tags.data_accesses        919026041                       # Number of data accesses
system.cpu.dcache.pwrStateResidencyTicks::UNDEFINED 851155468500                       # Cumulative time (in ticks) in various power states
system.cpu.dcache.ReadReq_hits::switch_cpus.data    313514348                       # number of ReadReq hits
system.cpu.dcache.ReadReq_hits::total       313514348                       # number of ReadReq hits
system.cpu.dcache.WriteReq_hits::switch_cpus.data    128828665                       # number of WriteReq hits
system.cpu.dcache.WriteReq_hits::total      128828665                       # number of WriteReq hits
system.cpu.dcache.SoftPFReq_hits::switch_cpus.data           31                       # number of SoftPFReq hits
system.cpu.dcache.SoftPFReq_hits::total            31                       # number of SoftPFReq hits
system.cpu.dcache.LoadLockedReq_hits::switch_cpus.data         1384                       # number of LoadLockedReq hits
system.cpu.dcache.LoadLockedReq_hits::total         1384                       # number of LoadLockedReq hits
system.cpu.dcache.StoreCondReq_hits::switch_cpus.data         1578                       # number of StoreCondReq hits
system.cpu.dcache.StoreCondReq_hits::total         1578                       # number of StoreCondReq hits
system.cpu.dcache.demand_hits::switch_cpus.data    442343013                       # number of demand (read+write) hits
system.cpu.dcache.demand_hits::total        442343013                       # number of demand (read+write) hits
system.cpu.dcache.overall_hits::switch_cpus.data    442343044                       # number of overall hits
system.cpu.dcache.overall_hits::total       442343044                       # number of overall hits
system.cpu.dcache.ReadReq_misses::switch_cpus.data      4252843                       # number of ReadReq misses
system.cpu.dcache.ReadReq_misses::total       4252843                       # number of ReadReq misses
system.cpu.dcache.WriteReq_misses::switch_cpus.data      9844939                       # number of WriteReq misses
system.cpu.dcache.WriteReq_misses::total      9844939                       # number of WriteReq misses
system.cpu.dcache.SoftPFReq_misses::switch_cpus.data          441                       # number of SoftPFReq misses
system.cpu.dcache.SoftPFReq_misses::total          441                       # number of SoftPFReq misses
system.cpu.dcache.LoadLockedReq_misses::switch_cpus.data          194                       # number of LoadLockedReq misses
system.cpu.dcache.LoadLockedReq_misses::total          194                       # number of LoadLockedReq misses
system.cpu.dcache.demand_misses::switch_cpus.data     14097782                       # number of demand (read+write) misses
system.cpu.dcache.demand_misses::total       14097782                       # number of demand (read+write) misses
system.cpu.dcache.overall_misses::switch_cpus.data     14098223                       # number of overall misses
system.cpu.dcache.overall_misses::total      14098223                       # number of overall misses
system.cpu.dcache.ReadReq_miss_latency::switch_cpus.data  45098587500                       # number of ReadReq miss cycles
system.cpu.dcache.ReadReq_miss_latency::total  45098587500                       # number of ReadReq miss cycles
system.cpu.dcache.WriteReq_miss_latency::switch_cpus.data 104338899684                       # number of WriteReq miss cycles
system.cpu.dcache.WriteReq_miss_latency::total 104338899684                       # number of WriteReq miss cycles
system.cpu.dcache.LoadLockedReq_miss_latency::switch_cpus.data      2522000                       # number of LoadLockedReq miss cycles
system.cpu.dcache.LoadLockedReq_miss_latency::total      2522000                       # number of LoadLockedReq miss cycles
system.cpu.dcache.demand_miss_latency::switch_cpus.data 149437487184                       # number of demand (read+write) miss cycles
system.cpu.dcache.demand_miss_latency::total 149437487184                       # number of demand (read+write) miss cycles
system.cpu.dcache.overall_miss_latency::switch_cpus.data 149437487184                       # number of overall miss cycles
system.cpu.dcache.overall_miss_latency::total 149437487184                       # number of overall miss cycles
system.cpu.dcache.ReadReq_accesses::switch_cpus.data    317767191                       # number of ReadReq accesses(hits+misses)
system.cpu.dcache.ReadReq_accesses::total    317767191                       # number of ReadReq accesses(hits+misses)
system.cpu.dcache.WriteReq_accesses::switch_cpus.data    138673604                       # number of WriteReq accesses(hits+misses)
system.cpu.dcache.WriteReq_accesses::total    138673604                       # number of WriteReq accesses(hits+misses)
system.cpu.dcache.SoftPFReq_accesses::switch_cpus.data          472                       # number of SoftPFReq accesses(hits+misses)
system.cpu.dcache.SoftPFReq_accesses::total          472                       # number of SoftPFReq accesses(hits+misses)
system.cpu.dcache.LoadLockedReq_accesses::switch_cpus.data         1578                       # number of LoadLockedReq accesses(hits+misses)
system.cpu.dcache.LoadLockedReq_accesses::total         1578                       # number of LoadLockedReq accesses(hits+misses)
system.cpu.dcache.StoreCondReq_accesses::switch_cpus.data         1578                       # number of StoreCondReq accesses(hits+misses)
system.cpu.dcache.StoreCondReq_accesses::total         1578                       # number of StoreCondReq accesses(hits+misses)
system.cpu.dcache.demand_accesses::switch_cpus.data    456440795                       # number of demand (read+write) accesses
system.cpu.dcache.demand_accesses::total    456440795                       # number of demand (read+write) accesses
system.cpu.dcache.overall_accesses::switch_cpus.data    456441267                       # number of overall (read+write) accesses
system.cpu.dcache.overall_accesses::total    456441267                       # number of overall (read+write) accesses
system.cpu.dcache.ReadReq_miss_rate::switch_cpus.data     0.013384                       # miss rate for ReadReq accesses
system.cpu.dcache.ReadReq_miss_rate::total     0.013384                       # miss rate for ReadReq accesses
system.cpu.dcache.WriteReq_miss_rate::switch_cpus.data     0.070994                       # miss rate for WriteReq accesses
system.cpu.dcache.WriteReq_miss_rate::total     0.070994                       # miss rate for WriteReq accesses
system.cpu.dcache.SoftPFReq_miss_rate::switch_cpus.data     0.934322                       # miss rate for SoftPFReq accesses
system.cpu.dcache.SoftPFReq_miss_rate::total     0.934322                       # miss rate for SoftPFReq accesses
system.cpu.dcache.LoadLockedReq_miss_rate::switch_cpus.data     0.122940                       # miss rate for LoadLockedReq accesses
system.cpu.dcache.LoadLockedReq_miss_rate::total     0.122940                       # miss rate for LoadLockedReq accesses
system.cpu.dcache.demand_miss_rate::switch_cpus.data     0.030886                       # miss rate for demand accesses
system.cpu.dcache.demand_miss_rate::total     0.030886                       # miss rate for demand accesses
system.cpu.dcache.overall_miss_rate::switch_cpus.data     0.030887                       # miss rate for overall accesses
system.cpu.dcache.overall_miss_rate::total     0.030887                       # miss rate for overall accesses
system.cpu.dcache.ReadReq_avg_miss_latency::switch_cpus.data 10604.338674                       # average ReadReq miss latency
system.cpu.dcache.ReadReq_avg_miss_latency::total 10604.338674                       # average ReadReq miss latency
system.cpu.dcache.WriteReq_avg_miss_latency::switch_cpus.data 10598.227138                       # average WriteReq miss latency
system.cpu.dcache.WriteReq_avg_miss_latency::total 10598.227138                       # average WriteReq miss latency
system.cpu.dcache.LoadLockedReq_avg_miss_latency::switch_cpus.data        13000                       # average LoadLockedReq miss latency
system.cpu.dcache.LoadLockedReq_avg_miss_latency::total        13000                       # average LoadLockedReq miss latency
system.cpu.dcache.demand_avg_miss_latency::switch_cpus.data 10600.070790                       # average overall miss latency
system.cpu.dcache.demand_avg_miss_latency::total 10600.070790                       # average overall miss latency
system.cpu.dcache.overall_avg_miss_latency::switch_cpus.data 10599.739214                       # average overall miss latency
system.cpu.dcache.overall_avg_miss_latency::total 10599.739214                       # average overall miss latency
system.cpu.dcache.blocked_cycles::no_mshrs       233048                       # number of cycles access was blocked
system.cpu.dcache.blocked_cycles::no_targets            0                       # number of cycles access was blocked
system.cpu.dcache.blocked::no_mshrs             26370                       # number of cycles access was blocked
system.cpu.dcache.blocked::no_targets               0                       # number of cycles access was blocked
system.cpu.dcache.avg_blocked_cycles::no_mshrs     8.837619                       # average number of cycles each access was blocked
system.cpu.dcache.avg_blocked_cycles::no_targets          nan                       # average number of cycles each access was blocked
system.cpu.dcache.writebacks::writebacks      6132960                       # number of writebacks
system.cpu.dcache.writebacks::total           6132960                       # number of writebacks
system.cpu.dcache.ReadReq_mshr_hits::switch_cpus.data      1427466                       # number of ReadReq MSHR hits
system.cpu.dcache.ReadReq_mshr_hits::total      1427466                       # number of ReadReq MSHR hits
system.cpu.dcache.WriteReq_mshr_hits::switch_cpus.data      6533536                       # number of WriteReq MSHR hits
system.cpu.dcache.WriteReq_mshr_hits::total      6533536                       # number of WriteReq MSHR hits
system.cpu.dcache.demand_mshr_hits::switch_cpus.data      7961002                       # number of demand (read+write) MSHR hits
system.cpu.dcache.demand_mshr_hits::total      7961002                       # number of demand (read+write) MSHR hits
system.cpu.dcache.overall_mshr_hits::switch_cpus.data      7961002                       # number of overall MSHR hits
system.cpu.dcache.overall_mshr_hits::total      7961002                       # number of overall MSHR hits
system.cpu.dcache.ReadReq_mshr_misses::switch_cpus.data      2825377                       # number of ReadReq MSHR misses
system.cpu.dcache.ReadReq_mshr_misses::total      2825377                       # number of ReadReq MSHR misses
system.cpu.dcache.WriteReq_mshr_misses::switch_cpus.data      3311403                       # number of WriteReq MSHR misses
system.cpu.dcache.WriteReq_mshr_misses::total      3311403                       # number of WriteReq MSHR misses
system.cpu.dcache.SoftPFReq_mshr_misses::switch_cpus.data          221                       # number of SoftPFReq MSHR misses
system.cpu.dcache.SoftPFReq_mshr_misses::total          221                       # number of SoftPFReq MSHR misses
system.cpu.dcache.LoadLockedReq_mshr_misses::switch_cpus.data          194                       # number of LoadLockedReq MSHR misses
system.cpu.dcache.LoadLockedReq_mshr_misses::total          194                       # number of LoadLockedReq MSHR misses
system.cpu.dcache.demand_mshr_misses::switch_cpus.data      6136780                       # number of demand (read+write) MSHR misses
system.cpu.dcache.demand_mshr_misses::total      6136780                       # number of demand (read+write) MSHR misses
system.cpu.dcache.overall_mshr_misses::switch_cpus.data      6137001                       # number of overall MSHR misses
system.cpu.dcache.overall_mshr_misses::total      6137001                       # number of overall MSHR misses
system.cpu.dcache.ReadReq_mshr_miss_latency::switch_cpus.data  34468747000                       # number of ReadReq MSHR miss cycles
system.cpu.dcache.ReadReq_mshr_miss_latency::total  34468747000                       # number of ReadReq MSHR miss cycles
system.cpu.dcache.WriteReq_mshr_miss_latency::switch_cpus.data  41250548963                       # number of WriteReq MSHR miss cycles
system.cpu.dcache.WriteReq_mshr_miss_latency::total  41250548963                       # number of WriteReq MSHR miss cycles
system.cpu.dcache.SoftPFReq_mshr_miss_latency::switch_cpus.data      2652000                       # number of SoftPFReq MSHR miss cycles
system.cpu.dcache.SoftPFReq_mshr_miss_latency::total      2652000                       # number of SoftPFReq MSHR miss cycles
system.cpu.dcache.LoadLockedReq_mshr_miss_latency::switch_cpus.data      2328000                       # number of LoadLockedReq MSHR miss cycles
system.cpu.dcache.LoadLockedReq_mshr_miss_latency::total      2328000                       # number of LoadLockedReq MSHR miss cycles
system.cpu.dcache.demand_mshr_miss_latency::switch_cpus.data  75719295963                       # number of demand (read+write) MSHR miss cycles
system.cpu.dcache.demand_mshr_miss_latency::total  75719295963                       # number of demand (read+write) MSHR miss cycles
system.cpu.dcache.overall_mshr_miss_latency::switch_cpus.data  75721947963                       # number of overall MSHR miss cycles
system.cpu.dcache.overall_mshr_miss_latency::total  75721947963                       # number of overall MSHR miss cycles
system.cpu.dcache.ReadReq_mshr_miss_rate::switch_cpus.data     0.008891                       # mshr miss rate for ReadReq accesses
system.cpu.dcache.ReadReq_mshr_miss_rate::total     0.008891                       # mshr miss rate for ReadReq accesses
system.cpu.dcache.WriteReq_mshr_miss_rate::switch_cpus.data     0.023879                       # mshr miss rate for WriteReq accesses
system.cpu.dcache.WriteReq_mshr_miss_rate::total     0.023879                       # mshr miss rate for WriteReq accesses
system.cpu.dcache.SoftPFReq_mshr_miss_rate::switch_cpus.data     0.468220                       # mshr miss rate for SoftPFReq accesses
system.cpu.dcache.SoftPFReq_mshr_miss_rate::total     0.468220                       # mshr miss rate for SoftPFReq accesses
system.cpu.dcache.LoadLockedReq_mshr_miss_rate::switch_cpus.data     0.122940                       # mshr miss rate for LoadLockedReq accesses
system.cpu.dcache.LoadLockedReq_mshr_miss_rate::total     0.122940                       # mshr miss rate for LoadLockedReq accesses
system.cpu.dcache.demand_mshr_miss_rate::switch_cpus.data     0.013445                       # mshr miss rate for demand accesses
system.cpu.dcache.demand_mshr_miss_rate::total     0.013445                       # mshr miss rate for demand accesses
system.cpu.dcache.overall_mshr_miss_rate::switch_cpus.data     0.013445                       # mshr miss rate for overall accesses
system.cpu.dcache.overall_mshr_miss_rate::total     0.013445                       # mshr miss rate for overall accesses
system.cpu.dcache.ReadReq_avg_mshr_miss_latency::switch_cpus.data 12199.698306                       # average ReadReq mshr miss latency
system.cpu.dcache.ReadReq_avg_mshr_miss_latency::total 12199.698306                       # average ReadReq mshr miss latency
system.cpu.dcache.WriteReq_avg_mshr_miss_latency::switch_cpus.data 12457.121336                       # average WriteReq mshr miss latency
system.cpu.dcache.WriteReq_avg_mshr_miss_latency::total 12457.121336                       # average WriteReq mshr miss latency
system.cpu.dcache.SoftPFReq_avg_mshr_miss_latency::switch_cpus.data        12000                       # average SoftPFReq mshr miss latency
system.cpu.dcache.SoftPFReq_avg_mshr_miss_latency::total        12000                       # average SoftPFReq mshr miss latency
system.cpu.dcache.LoadLockedReq_avg_mshr_miss_latency::switch_cpus.data        12000                       # average LoadLockedReq mshr miss latency
system.cpu.dcache.LoadLockedReq_avg_mshr_miss_latency::total        12000                       # average LoadLockedReq mshr miss latency
system.cpu.dcache.demand_avg_mshr_miss_latency::switch_cpus.data 12338.603626                       # average overall mshr miss latency
system.cpu.dcache.demand_avg_mshr_miss_latency::total 12338.603626                       # average overall mshr miss latency
system.cpu.dcache.overall_avg_mshr_miss_latency::switch_cpus.data 12338.591433                       # average overall mshr miss latency
system.cpu.dcache.overall_avg_mshr_miss_latency::total 12338.591433                       # average overall mshr miss latency
system.cpu.icache.tags.pwrStateResidencyTicks::UNDEFINED 851155468500                       # Cumulative time (in ticks) in various power states
system.cpu.icache.tags.replacements               201                       # number of replacements
system.cpu.icache.tags.tagsinuse           473.085648                       # Cycle average of tags in use
system.cpu.icache.tags.total_refs          1211559578                       # Total number of references to valid blocks.
system.cpu.icache.tags.sampled_refs               675                       # Sample count of references to valid blocks.
system.cpu.icache.tags.avg_refs          1794903.078519                       # Average number of references to valid blocks.
system.cpu.icache.tags.warmup_cycle                 0                       # Cycle when the warmup percentage was hit.
system.cpu.icache.tags.occ_blocks::cpu.inst   458.531414                       # Average occupied blocks per requestor
system.cpu.icache.tags.occ_blocks::switch_cpus.inst    14.554234                       # Average occupied blocks per requestor
system.cpu.icache.tags.occ_percent::cpu.inst     0.895569                       # Average percentage of cache occupancy
system.cpu.icache.tags.occ_percent::switch_cpus.inst     0.028426                       # Average percentage of cache occupancy
system.cpu.icache.tags.occ_percent::total     0.923995                       # Average percentage of cache occupancy
system.cpu.icache.tags.occ_task_id_blocks::1024          474                       # Occupied blocks per task id
system.cpu.icache.tags.age_task_id_blocks_1024::4          474                       # Occupied blocks per task id
system.cpu.icache.tags.occ_task_id_percent::1024     0.925781                       # Percentage of cache occupancy per task id
system.cpu.icache.tags.tag_accesses         333685520                       # Number of tag accesses
system.cpu.icache.tags.data_accesses        333685520                       # Number of data accesses
system.cpu.icache.pwrStateResidencyTicks::UNDEFINED 851155468500                       # Cumulative time (in ticks) in various power states
system.cpu.icache.ReadReq_hits::switch_cpus.inst    166842447                       # number of ReadReq hits
system.cpu.icache.ReadReq_hits::total       166842447                       # number of ReadReq hits
system.cpu.icache.demand_hits::switch_cpus.inst    166842447                       # number of demand (read+write) hits
system.cpu.icache.demand_hits::total        166842447                       # number of demand (read+write) hits
system.cpu.icache.overall_hits::switch_cpus.inst    166842447                       # number of overall hits
system.cpu.icache.overall_hits::total       166842447                       # number of overall hits
system.cpu.icache.ReadReq_misses::switch_cpus.inst          212                       # number of ReadReq misses
system.cpu.icache.ReadReq_misses::total           212                       # number of ReadReq misses
system.cpu.icache.demand_misses::switch_cpus.inst          212                       # number of demand (read+write) misses
system.cpu.icache.demand_misses::total            212                       # number of demand (read+write) misses
system.cpu.icache.overall_misses::switch_cpus.inst          212                       # number of overall misses
system.cpu.icache.overall_misses::total           212                       # number of overall misses
system.cpu.icache.ReadReq_miss_latency::switch_cpus.inst     15249500                       # number of ReadReq miss cycles
system.cpu.icache.ReadReq_miss_latency::total     15249500                       # number of ReadReq miss cycles
system.cpu.icache.demand_miss_latency::switch_cpus.inst     15249500                       # number of demand (read+write) miss cycles
system.cpu.icache.demand_miss_latency::total     15249500                       # number of demand (read+write) miss cycles
system.cpu.icache.overall_miss_latency::switch_cpus.inst     15249500                       # number of overall miss cycles
system.cpu.icache.overall_miss_latency::total     15249500                       # number of overall miss cycles
system.cpu.icache.ReadReq_accesses::switch_cpus.inst    166842659                       # number of ReadReq accesses(hits+misses)
system.cpu.icache.ReadReq_accesses::total    166842659                       # number of ReadReq accesses(hits+misses)
system.cpu.icache.demand_accesses::switch_cpus.inst    166842659                       # number of demand (read+write) accesses
system.cpu.icache.demand_accesses::total    166842659                       # number of demand (read+write) accesses
system.cpu.icache.overall_accesses::switch_cpus.inst    166842659                       # number of overall (read+write) accesses
system.cpu.icache.overall_accesses::total    166842659                       # number of overall (read+write) accesses
system.cpu.icache.ReadReq_miss_rate::switch_cpus.inst     0.000001                       # miss rate for ReadReq accesses
system.cpu.icache.ReadReq_miss_rate::total     0.000001                       # miss rate for ReadReq accesses
system.cpu.icache.demand_miss_rate::switch_cpus.inst     0.000001                       # miss rate for demand accesses
system.cpu.icache.demand_miss_rate::total     0.000001                       # miss rate for demand accesses
system.cpu.icache.overall_miss_rate::switch_cpus.inst     0.000001                       # miss rate for overall accesses
system.cpu.icache.overall_miss_rate::total     0.000001                       # miss rate for overall accesses
system.cpu.icache.ReadReq_avg_miss_latency::switch_cpus.inst 71931.603774                       # average ReadReq miss latency
system.cpu.icache.ReadReq_avg_miss_latency::total 71931.603774                       # average ReadReq miss latency
system.cpu.icache.demand_avg_miss_latency::switch_cpus.inst 71931.603774                       # average overall miss latency
system.cpu.icache.demand_avg_miss_latency::total 71931.603774                       # average overall miss latency
system.cpu.icache.overall_avg_miss_latency::switch_cpus.inst 71931.603774                       # average overall miss latency
system.cpu.icache.overall_avg_miss_latency::total 71931.603774                       # average overall miss latency
system.cpu.icache.blocked_cycles::no_mshrs          126                       # number of cycles access was blocked
system.cpu.icache.blocked_cycles::no_targets            0                       # number of cycles access was blocked
system.cpu.icache.blocked::no_mshrs                 2                       # number of cycles access was blocked
system.cpu.icache.blocked::no_targets               0                       # number of cycles access was blocked
[...]
system.switch_cpus.iew.lsq.thread0.ignoredResponses         2223                       # Number of memory responses ignored because the instruction is squashed
system.switch_cpus.iew.lsq.thread0.memOrderViolation         3731                       # Number of memory ordering violations
system.switch_cpus.iew.lsq.thread0.squashedStores      1094687                       # Number of stores squashed
system.switch_cpus.iew.lsq.thread0.invAddrSwpfs            0                       # Number of software prefetches ignored due to an invalid address
system.switch_cpus.iew.lsq.thread0.blockedLoads            0                       # Number of blocked loads due to partial load-store forwarding
system.switch_cpus.iew.lsq.thread0.rescheduledLoads          378                       # Number of loads that were rescheduled
system.switch_cpus.iew.lsq.thread0.cacheBlocked        96083                       # Number of times an access to memory failed due to the cache being blocked
system.switch_cpus.iew.iewIdleCycles                0                       # Number of cycles IEW is idle
system.switch_cpus.iew.iewSquashCycles         718436                       # Number of cycles IEW is squashing
system.switch_cpus.iew.iewBlockCycles          732792                       # Number of cycles IEW is blocking
system.switch_cpus.iew.iewUnblockCycles        757437                       # Number of cycles IEW is unblocking
system.switch_cpus.iew.iewDispatchedInsts   1051673960                       # Number of instructions dispatched to IQ
system.switch_cpus.iew.iewDispSquashedInsts            0                       # Number of squashed instructions skipped by dispatch
system.switch_cpus.iew.iewDispLoadInsts     347807597                       # Number of dispatched load instructions
system.switch_cpus.iew.iewDispStoreInsts    168775470                       # Number of dispatched store instructions
system.switch_cpus.iew.iewDispNonSpecInsts         2018                       # Number of dispatched non-speculative instructions
system.switch_cpus.iew.iewIQFullEvents              2                       # Number of times the IQ has become full, causing a stall
system.switch_cpus.iew.iewLSQFullEvents        757540                       # Number of times the LSQ has become full, causing a stall
system.switch_cpus.iew.memOrderViolationEvents         3731                       # Number of memory order violations
system.switch_cpus.iew.predictedTakenIncorrect       393114                       # Number of branches that were predicted taken incorrectly
system.switch_cpus.iew.predictedNotTakenIncorrect       337210                       # Number of branches that were predicted not taken incorrectly
system.switch_cpus.iew.branchMispredicts       730324                       # Number of branch mispredicts detected at execute
system.switch_cpus.iew.iewExecutedInsts    1047211583                       # Number of executed instructions
system.switch_cpus.iew.iewExecLoadInsts     346782104                       # Number of load instructions executed
system.switch_cpus.iew.iewExecSquashedInsts      1500004                       # Number of squashed instructions skipped in execute
system.switch_cpus.iew.exec_swp                     0                       # number of swp insts executed
system.switch_cpus.iew.exec_nop                     7                       # number of nop insts executed
system.switch_cpus.iew.exec_refs            514950599                       # number of memory reference insts executed
system.switch_cpus.iew.exec_branches         33672307                       # Number of branches executed
system.switch_cpus.iew.exec_stores          168168495                       # Number of stores executed
system.switch_cpus.iew.exec_rate             1.709938                       # Inst execution rate
system.switch_cpus.iew.wb_sent             1046693857                       # cumulative count of insts sent to commit
system.switch_cpus.iew.wb_count            1046654913                       # cumulative count of insts written-back
system.switch_cpus.iew.wb_producers         677980221                       # num instructions producing a value
system.switch_cpus.iew.wb_consumers        1139701101                       # num instructions consuming a value
system.switch_cpus.iew.wb_rate               1.709029                       # insts written-back per cycle
system.switch_cpus.iew.wb_fanout             0.594875                       # average fanout of values written-back
system.switch_cpus.commit.commitSquashedInsts      8768654                       # The number of squashed insts skipped by commit
system.switch_cpus.commit.commitNonSpecStalls         4737                       # The number of times commit has been forced to stall to communicate backwards
system.switch_cpus.commit.branchMispredicts       714820                       # The number of times a branch was mispredicted
system.switch_cpus.commit.committed_per_cycle::samples    610973886                       # Number of insts commited each cycle
system.switch_cpus.commit.committed_per_cycle::mean     1.705085                       # Number of insts commited each cycle
system.switch_cpus.commit.committed_per_cycle::stdev     2.132655                       # Number of insts commited each cycle
system.switch_cpus.commit.committed_per_cycle::underflows            0      0.00%      0.00% # Number of insts commited each cycle
system.switch_cpus.commit.committed_per_cycle::0    219686532     35.96%     35.96% # Number of insts commited each cycle
system.switch_cpus.commit.committed_per_cycle::1    138359753     22.65%     58.60% # Number of insts commited each cycle
system.switch_cpus.commit.committed_per_cycle::2    134440574     22.00%     80.61% # Number of insts commited each cycle
system.switch_cpus.commit.committed_per_cycle::3     41683384      6.82%     87.43% # Number of insts commited each cycle
system.switch_cpus.commit.committed_per_cycle::4      1889281      0.31%     87.74% # Number of insts commited each cycle
system.switch_cpus.commit.committed_per_cycle::5     19851750      3.25%     90.99% # Number of insts commited each cycle
system.switch_cpus.commit.committed_per_cycle::6     10506538      1.72%     92.71% # Number of insts commited each cycle
system.switch_cpus.commit.committed_per_cycle::7     16832249      2.75%     95.46% # Number of insts commited each cycle
system.switch_cpus.commit.committed_per_cycle::8     27723825      4.54%    100.00% # Number of insts commited each cycle
system.switch_cpus.commit.committed_per_cycle::overflows            0      0.00%    100.00% # Number of insts commited each cycle
system.switch_cpus.commit.committed_per_cycle::min_value            0                       # Number of insts commited each cycle
system.switch_cpus.commit.committed_per_cycle::max_value            8                       # Number of insts commited each cycle
system.switch_cpus.commit.committed_per_cycle::total    610973886                       # Number of insts commited each cycle
system.switch_cpus.commit.committedInsts   1000000001                       # Number of instructions committed
system.switch_cpus.commit.committedOps     1041762498                       # Number of ops (including micro ops) committed
system.switch_cpus.commit.swp_count                 0                       # Number of s/w prefetches committed
system.switch_cpus.commit.refs              513073853                       # Number of memory references committed
system.switch_cpus.commit.loads             345393076                       # Number of loads committed
system.switch_cpus.commit.membars                3156                       # Number of memory barriers committed
system.switch_cpus.commit.branches           33085834                       # Number of branches committed
system.switch_cpus.commit.vec_insts                 0                       # Number of committed Vector instructions.
system.switch_cpus.commit.fp_insts            3917572                       # Number of committed floating point instructions.
system.switch_cpus.commit.int_insts         918163563                       # Number of committed integer instructions.
system.switch_cpus.commit.function_calls       194859                       # Number of function calls committed.
system.switch_cpus.commit.op_class_0::No_OpClass            0      0.00%      0.00% # Class of committed instruction
system.switch_cpus.commit.op_class_0::IntAlu    524199180     50.32%     50.32% # Class of committed instruction
system.switch_cpus.commit.op_class_0::IntMult       770265      0.07%     50.39% # Class of committed instruction
system.switch_cpus.commit.op_class_0::IntDiv            0      0.00%     50.39% # Class of committed instruction
system.switch_cpus.commit.op_class_0::FloatAdd            0      0.00%     50.39% # Class of committed instruction
system.switch_cpus.commit.op_class_0::FloatCmp            0      0.00%     50.39% # Class of committed instruction
system.switch_cpus.commit.op_class_0::FloatCvt            0      0.00%     50.39% # Class of committed instruction
system.switch_cpus.commit.op_class_0::FloatMult            0      0.00%     50.39% # Class of committed instruction
system.switch_cpus.commit.op_class_0::FloatMultAcc            0      0.00%     50.39% # Class of committed instruction
system.switch_cpus.commit.op_class_0::FloatDiv            0      0.00%     50.39% # Class of committed instruction
system.switch_cpus.commit.op_class_0::FloatMisc            0      0.00%     50.39% # Class of committed instruction
system.switch_cpus.commit.op_class_0::FloatSqrt            0      0.00%     50.39% # Class of committed instruction
system.switch_cpus.commit.op_class_0::SimdAdd            0      0.00%     50.39% # Class of committed instruction
system.switch_cpus.commit.op_class_0::SimdAddAcc            0      0.00%     50.39% # Class of committed instruction
system.switch_cpus.commit.op_class_0::SimdAlu            0      0.00%     50.39% # Class of committed instruction
system.switch_cpus.commit.op_class_0::SimdCmp            0      0.00%     50.39% # Class of committed instruction
system.switch_cpus.commit.op_class_0::SimdCvt            0      0.00%     50.39% # Class of committed instruction
system.switch_cpus.commit.op_class_0::SimdMisc            0      0.00%     50.39% # Class of committed instruction
system.switch_cpus.commit.op_class_0::SimdMult            0      0.00%     50.39% # Class of committed instruction
system.switch_cpus.commit.op_class_0::SimdMultAcc            0      0.00%     50.39% # Class of committed instruction
system.switch_cpus.commit.op_class_0::SimdShift            0      0.00%     50.39% # Class of committed instruction
system.switch_cpus.commit.op_class_0::SimdShiftAcc            0      0.00%     50.39% # Class of committed instruction
system.switch_cpus.commit.op_class_0::SimdSqrt            0      0.00%     50.39% # Class of committed instruction
system.switch_cpus.commit.op_class_0::SimdFloatAdd       883647      0.08%     50.48% # Class of committed instruction
system.switch_cpus.commit.op_class_0::SimdFloatAlu            0      0.00%     50.48% # Class of committed instruction
system.switch_cpus.commit.op_class_0::SimdFloatCmp       979440      0.09%     50.57% # Class of committed instruction
system.switch_cpus.commit.op_class_0::SimdFloatCvt       388832      0.04%     50.61% # Class of committed instruction
system.switch_cpus.commit.op_class_0::SimdFloatDiv            0      0.00%     50.61% # Class of committed instruction
system.switch_cpus.commit.op_class_0::SimdFloatMisc      1272813      0.12%     50.73% # Class of committed instruction
system.switch_cpus.commit.op_class_0::SimdFloatMult       193641      0.02%     50.75% # Class of committed instruction
system.switch_cpus.commit.op_class_0::SimdFloatMultAcc          827      0.00%     50.75% # Class of committed instruction
system.switch_cpus.commit.op_class_0::SimdFloatSqrt            0      0.00%     50.75% # Class of committed instruction
system.switch_cpus.commit.op_class_0::MemRead    344218463     33.04%     83.79% # Class of committed instruction
system.switch_cpus.commit.op_class_0::MemWrite    167677578     16.10%     99.89% # Class of committed instruction
system.switch_cpus.commit.op_class_0::FloatMemRead      1174613      0.11%    100.00% # Class of committed instruction
system.switch_cpus.commit.op_class_0::FloatMemWrite         3199      0.00%    100.00% # Class of committed instruction
system.switch_cpus.commit.op_class_0::IprAccess            0      0.00%    100.00% # Class of committed instruction
system.switch_cpus.commit.op_class_0::InstPrefetch            0      0.00%    100.00% # Class of committed instruction
system.switch_cpus.commit.op_class_0::total   1041762498                       # Class of committed instruction
system.switch_cpus.commit.bw_lim_events      27723825                       # number cycles where commit BW limit reached
system.switch_cpus.rob.rob_reads           1633781174                       # The number of ROB reads
system.switch_cpus.rob.rob_writes          2102513568                       # The number of ROB writes
system.switch_cpus.timesIdled                      70                       # Number of times that the entire CPU went into an idle state and unscheduled itself
system.switch_cpus.idleCycles                    1437                       # Total number of cycles that the CPU has spent unscheduled due to idling
system.switch_cpus.committedInsts          1000000001                       # Number of Instructions Simulated
system.switch_cpus.committedOps            1041762498                       # Number of Ops (including micro ops) Simulated
system.switch_cpus.cpi                       0.612427                       # CPI: Cycles Per Instruction
system.switch_cpus.cpi_total                 0.612427                       # CPI: Total CPI of All Threads
system.switch_cpus.ipc                       1.632849                       # IPC: Instructions Per Cycle
system.switch_cpus.ipc_total                 1.632849                       # IPC: Total IPC of All Threads
system.switch_cpus.int_regfile_reads       1522240364                       # number of integer regfile reads
system.switch_cpus.int_regfile_writes       634112637                       # number of integer regfile writes
system.switch_cpus.fp_regfile_reads           5730508                       # number of floating regfile reads
system.switch_cpus.fp_regfile_writes          3737784                       # number of floating regfile writes
system.switch_cpus.cc_regfile_reads        4181360654                       # number of cc regfile reads
system.switch_cpus.cc_regfile_writes        838436255                       # number of cc regfile writes
system.switch_cpus.misc_regfile_reads       554620291                       # number of misc regfile reads
system.switch_cpus.misc_regfile_writes        2452799                       # number of misc regfile writes
system.tol2bus.snoop_filter.tot_requests     12274793                       # Total number of requests made to the snoop filter.
system.tol2bus.snoop_filter.hit_single_requests      6137390                       # Number of requests hitting in the snoop filter with a single holder of the requested data.
system.tol2bus.snoop_filter.hit_multi_requests         1167                       # Number of requests hitting in the snoop filter with multiple (>1) holders of the requested data.
system.tol2bus.snoop_filter.tot_snoops             13                       # Total number of snoops made to the snoop filter.
system.tol2bus.snoop_filter.hit_single_snoops           13                       # Number of snoops hitting in the snoop filter with a single holder of the requested data.
system.tol2bus.snoop_filter.hit_multi_snoops            0                       # Number of snoops hitting in the snoop filter with multiple (>1) holders of the requested data.
system.tol2bus.pwrStateResidencyTicks::UNDEFINED 851155468500                       # Cumulative time (in ticks) in various power states
system.tol2bus.trans_dist::ReadResp           2824339                       # Transaction distribution
system.tol2bus.trans_dist::WritebackDirty      6132961                       # Transaction distribution
system.tol2bus.trans_dist::WritebackClean          201                       # Transaction distribution
system.tol2bus.trans_dist::CleanEvict            4282                       # Transaction distribution
system.tol2bus.trans_dist::ReadExReq          3313058                       # Transaction distribution
system.tol2bus.trans_dist::ReadExResp         3313058                       # Transaction distribution
system.tol2bus.trans_dist::ReadCleanReq           202                       # Transaction distribution
system.tol2bus.trans_dist::ReadSharedReq      2824137                       # Transaction distribution
system.tol2bus.pkt_count_system.cpu.icache.mem_side::system.l2.cpu_side          605                       # Packet count per connected master and slave (bytes)
system.tol2bus.pkt_count_system.cpu.dcache.mem_side::system.l2.cpu_side     18411585                       # Packet count per connected master and slave (bytes)
system.tol2bus.pkt_count::total              18412190                       # Packet count per connected master and slave (bytes)
system.tol2bus.pkt_size_system.cpu.icache.mem_side::system.l2.cpu_side        25792                       # Cumulative packet size per connected master and slave (bytes)
system.tol2bus.pkt_size_system.cpu.dcache.mem_side::system.l2.cpu_side    785289920                       # Cumulative packet size per connected master and slave (bytes)
system.tol2bus.pkt_size::total              785315712                       # Cumulative packet size per connected master and slave (bytes)
system.tol2bus.snoops                              48                       # Total snoops (count)
system.tol2bus.snoopTraffic                        64                       # Total snoop traffic (bytes)
system.tol2bus.snoop_fanout::samples          6137445                       # Request fanout histogram
system.tol2bus.snoop_fanout::mean            0.000191                       # Request fanout histogram
system.tol2bus.snoop_fanout::stdev           0.013829                       # Request fanout histogram
system.tol2bus.snoop_fanout::underflows             0      0.00%      0.00% # Request fanout histogram
system.tol2bus.snoop_fanout::0                6136271     99.98%     99.98% # Request fanout histogram
system.tol2bus.snoop_fanout::1                   1174      0.02%    100.00% # Request fanout histogram
system.tol2bus.snoop_fanout::2                      0      0.00%    100.00% # Request fanout histogram
system.tol2bus.snoop_fanout::overflows              0      0.00%    100.00% # Request fanout histogram
system.tol2bus.snoop_fanout::min_value              0                       # Request fanout histogram
system.tol2bus.snoop_fanout::max_value              1                       # Request fanout histogram
system.tol2bus.snoop_fanout::total            6137445                       # Request fanout histogram
system.tol2bus.reqLayer0.occupancy        12270557500                       # Layer occupancy (ticks)
system.tol2bus.reqLayer0.utilization              4.0                       # Layer utilization (%)
system.tol2bus.respLayer0.occupancy            303998                       # Layer occupancy (ticks)
system.tol2bus.respLayer0.utilization             0.0                       # Layer utilization (%)
system.tol2bus.respLayer1.occupancy        9205792500                       # Layer occupancy (ticks)
system.tol2bus.respLayer1.utilization             3.0                       # Layer utilization (%)

---------- End Simulation Statistics   ----------
