
---------- Begin Simulation Statistics ----------
sim_seconds                                  0.396581                       # Number of seconds simulated
sim_ticks                                396580961000                       # Number of ticks simulated
final_tick                               1009805107000                       # Number of ticks from beginning of simulation (restored from checkpoints and never reset)
sim_freq                                 1000000000000                       # Frequency of simulated ticks
host_inst_rate                                 151289                       # Simulator instruction rate (inst/s)
host_op_rate                                   159858                       # Simulator op (including micro ops) rate (op/s)
host_tick_rate                               29999138                       # Simulator tick rate (ticks/s)
host_mem_usage                                2236820                       # Number of bytes of host memory used
host_seconds                                 13219.75                       # Real time elapsed on the host
sim_insts                                  2000000001                       # Number of instructions simulated
sim_ops                                    2113278526                       # Number of ops (including micro ops) simulated
system.voltage_domain.voltage                       1                       # Voltage in Volts
system.clk_domain.clock                           500                       # Clock period in ticks
system.mem_ctrls.pwrStateResidencyTicks::UNDEFINED 1009805107000                       # Cumulative time (in ticks) in various power states
system.mem_ctrls.bytes_read::switch_cpus.inst         5824                       # Number of bytes read from this memory
system.mem_ctrls.bytes_read::switch_cpus.data     40714496                       # Number of bytes read from this memory
system.mem_ctrls.bytes_read::total           40720320                       # Number of bytes read from this memory
system.mem_ctrls.bytes_inst_read::switch_cpus.inst         5824                       # Number of instructions bytes read from this memory
system.mem_ctrls.bytes_inst_read::total          5824                       # Number of instructions bytes read from this memory
system.mem_ctrls.bytes_written::writebacks     29768256                       # Number of bytes written to this memory
system.mem_ctrls.bytes_written::total        29768256                       # Number of bytes written to this memory
system.mem_ctrls.num_reads::switch_cpus.inst           91                       # Number of read requests responded to by this memory
system.mem_ctrls.num_reads::switch_cpus.data       636164                       # Number of read requests responded to by this memory
system.mem_ctrls.num_reads::total              636255                       # Number of read requests responded to by this memory
system.mem_ctrls.num_writes::writebacks        465129                       # Number of write requests responded to by this memory
system.mem_ctrls.num_writes::total             465129                       # Number of write requests responded to by this memory
system.mem_ctrls.bw_read::switch_cpus.inst        14686                       # Total read bandwidth from this memory (bytes/s)
system.mem_ctrls.bw_read::switch_cpus.data    102663769                       # Total read bandwidth from this memory (bytes/s)
system.mem_ctrls.bw_read::total             102678454                       # Total read bandwidth from this memory (bytes/s)
system.mem_ctrls.bw_inst_read::switch_cpus.inst        14686                       # Instruction read bandwidth from this memory (bytes/s)
system.mem_ctrls.bw_inst_read::total            14686                       # Instruction read bandwidth from this memory (bytes/s)
system.mem_ctrls.bw_write::writebacks        75062242                       # Write bandwidth from this memory (bytes/s)
system.mem_ctrls.bw_write::total             75062242                       # Write bandwidth from this memory (bytes/s)
system.mem_ctrls.bw_total::writebacks        75062242                       # Total bandwidth to/from this memory (bytes/s)
system.mem_ctrls.bw_total::switch_cpus.inst        14686                       # Total bandwidth to/from this memory (bytes/s)
system.mem_ctrls.bw_total::switch_cpus.data    102663769                       # Total bandwidth to/from this memory (bytes/s)
system.mem_ctrls.bw_total::total            177740696                       # Total bandwidth to/from this memory (bytes/s)
system.mem_ctrls.readReqs                      636255                       # Number of read requests accepted
system.mem_ctrls.writeReqs                     465129                       # Number of write requests accepted
system.mem_ctrls.readBursts                    636255                       # Number of DRAM read bursts, including those serviced by the write queue
system.mem_ctrls.writeBursts                   465129                       # Number of DRAM write bursts, including those merged in the write queue
system.mem_ctrls.bytesReadDRAM               40693120                       # Total number of bytes read from DRAM
system.mem_ctrls.bytesReadWrQ                   27200                       # Total number of bytes read from write queue
system.mem_ctrls.bytesWritten                29766464                       # Total number of bytes written to DRAM
system.mem_ctrls.bytesReadSys                40720320                       # Total read bytes from the system interface side
system.mem_ctrls.bytesWrittenSys             29768256                       # Total written bytes from the system interface side
system.mem_ctrls.servicedByWrQ                    425                       # Number of DRAM read bursts serviced by the write queue
system.mem_ctrls.mergedWrBursts                     0                       # Number of DRAM write bursts merged with an existing one
system.mem_ctrls.neitherReadNorWriteReqs            0                       # Number of requests that are neither read nor write
system.mem_ctrls.perBankRdBursts::0             40768                       # Per bank write bursts
system.mem_ctrls.perBankRdBursts::1             40510                       # Per bank write bursts
system.mem_ctrls.perBankRdBursts::2             40394                       # Per bank write bursts
system.mem_ctrls.perBankRdBursts::3             41789                       # Per bank write bursts
system.mem_ctrls.perBankRdBursts::4             41678                       # Per bank write bursts
system.mem_ctrls.perBankRdBursts::5             40485                       # Per bank write bursts
system.mem_ctrls.perBankRdBursts::6             37667                       # Per bank write bursts
system.mem_ctrls.perBankRdBursts::7             37485                       # Per bank write bursts
system.mem_ctrls.perBankRdBursts::8             37382                       # Per bank write bursts
system.mem_ctrls.perBankRdBursts::9             38284                       # Per bank write bursts
system.mem_ctrls.perBankRdBursts::10            38581                       # Per bank write bursts
system.mem_ctrls.perBankRdBursts::11            39880                       # Per bank write bursts
system.mem_ctrls.perBankRdBursts::12            39535                       # Per bank write bursts
system.mem_ctrls.perBankRdBursts::13            40521                       # Per bank write bursts
system.mem_ctrls.perBankRdBursts::14            40199                       # Per bank write bursts
system.mem_ctrls.perBankRdBursts::15            40672                       # Per bank write bursts
system.mem_ctrls.perBankWrBursts::0             29776                       # Per bank write bursts
system.mem_ctrls.perBankWrBursts::1             29853                       # Per bank write bursts
system.mem_ctrls.perBankWrBursts::2             30071                       # Per bank write bursts
system.mem_ctrls.perBankWrBursts::3             31383                       # Per bank write bursts
system.mem_ctrls.perBankWrBursts::4             30911                       # Per bank write bursts
system.mem_ctrls.perBankWrBursts::5             29788                       # Per bank write bursts
system.mem_ctrls.perBankWrBursts::6             27571                       # Per bank write bursts
system.mem_ctrls.perBankWrBursts::7             27344                       # Per bank write bursts
system.mem_ctrls.perBankWrBursts::8             27357                       # Per bank write bursts
system.mem_ctrls.perBankWrBursts::9             28014                       # Per bank write bursts
system.mem_ctrls.perBankWrBursts::10            27579                       # Per bank write bursts
system.mem_ctrls.perBankWrBursts::11            28888                       # Per bank write bursts
system.mem_ctrls.perBankWrBursts::12            28425                       # Per bank write bursts
system.mem_ctrls.perBankWrBursts::13            29299                       # Per bank write bursts
system.mem_ctrls.perBankWrBursts::14            29261                       # Per bank write bursts
system.mem_ctrls.perBankWrBursts::15            29581                       # Per bank write bursts
system.mem_ctrls.numRdRetry                         0                       # Number of times read queue was full causing retry
system.mem_ctrls.numWrRetry                         0                       # Number of times write queue was full causing retry
system.mem_ctrls.totGap                  396568191500                       # Total gap between requests
system.mem_ctrls.readPktSize::0                     0                       # Read request sizes (log2)
system.mem_ctrls.readPktSize::1                     0                       # Read request sizes (log2)
system.mem_ctrls.readPktSize::2                     0                       # Read request sizes (log2)
system.mem_ctrls.readPktSize::3                     0                       # Read request sizes (log2)
system.mem_ctrls.readPktSize::4                     0                       # Read request sizes (log2)
system.mem_ctrls.readPktSize::5                     0                       # Read request sizes (log2)
system.mem_ctrls.readPktSize::6                636255                       # Read request sizes (log2)
system.mem_ctrls.writePktSize::0                    0                       # Write request sizes (log2)
system.mem_ctrls.writePktSize::1                    0                       # Write request sizes (log2)
system.mem_ctrls.writePktSize::2                    0                       # Write request sizes (log2)
system.mem_ctrls.writePktSize::3                    0                       # Write request sizes (log2)
system.mem_ctrls.writePktSize::4                    0                       # Write request sizes (log2)
system.mem_ctrls.writePktSize::5                    0                       # Write request sizes (log2)
system.mem_ctrls.writePktSize::6               465129                       # Write request sizes (log2)
system.mem_ctrls.rdQLenPdf::0                  497605                       # What read queue length does an incoming req see
system.mem_ctrls.rdQLenPdf::1                   96326                       # What read queue length does an incoming req see
system.mem_ctrls.rdQLenPdf::2                   32094                       # What read queue length does an incoming req see
system.mem_ctrls.rdQLenPdf::3                    9800                       # What read queue length does an incoming req see
system.mem_ctrls.rdQLenPdf::4                       5                       # What read queue length does an incoming req see
system.mem_ctrls.rdQLenPdf::5                       0                       # What read queue length does an incoming req see
system.mem_ctrls.rdQLenPdf::6                       0                       # What read queue length does an incoming req see
system.mem_ctrls.rdQLenPdf::7                       0                       # What read queue length does an incoming req see
system.mem_ctrls.rdQLenPdf::8                       0                       # What read queue length does an incoming req see
system.mem_ctrls.rdQLenPdf::9                       0                       # What read queue length does an incoming req see
system.mem_ctrls.rdQLenPdf::10                      0                       # What read queue length does an incoming req see
system.mem_ctrls.rdQLenPdf::11                      0                       # What read queue length does an incoming req see
system.mem_ctrls.rdQLenPdf::12                      0                       # What read queue length does an incoming req see
system.mem_ctrls.rdQLenPdf::13                      0                       # What read queue length does an incoming req see
system.mem_ctrls.rdQLenPdf::14                      0                       # What read queue length does an incoming req see
system.mem_ctrls.rdQLenPdf::15                      0                       # What read queue length does an incoming req see
system.mem_ctrls.rdQLenPdf::16                      0                       # What read queue length does an incoming req see
system.mem_ctrls.rdQLenPdf::17                      0                       # What read queue length does an incoming req see
system.mem_ctrls.rdQLenPdf::18                      0                       # What read queue length does an incoming req see
system.mem_ctrls.rdQLenPdf::19                      0                       # What read queue length does an incoming req see
system.mem_ctrls.rdQLenPdf::20                      0                       # What read queue length does an incoming req see
system.mem_ctrls.rdQLenPdf::21                      0                       # What read queue length does an incoming req see
system.mem_ctrls.rdQLenPdf::22                      0                       # What read queue length does an incoming req see
system.mem_ctrls.rdQLenPdf::23                      0                       # What read queue length does an incoming req see
system.mem_ctrls.rdQLenPdf::24                      0                       # What read queue length does an incoming req see
system.mem_ctrls.rdQLenPdf::25                      0                       # What read queue length does an incoming req see
system.mem_ctrls.rdQLenPdf::26                      0                       # What read queue length does an incoming req see
system.mem_ctrls.rdQLenPdf::27                      0                       # What read queue length does an incoming req see
system.mem_ctrls.rdQLenPdf::28                      0                       # What read queue length does an incoming req see
system.mem_ctrls.rdQLenPdf::29                      0                       # What read queue length does an incoming req see
system.mem_ctrls.rdQLenPdf::30                      0                       # What read queue length does an incoming req see
system.mem_ctrls.rdQLenPdf::31                      0                       # What read queue length does an incoming req see
system.mem_ctrls.wrQLenPdf::0                       1                       # What write queue length does an incoming req see
system.mem_ctrls.wrQLenPdf::1                       1                       # What write queue length does an incoming req see
system.mem_ctrls.wrQLenPdf::2                       1                       # What write queue length does an incoming req see
system.mem_ctrls.wrQLenPdf::3                       1                       # What write queue length does an incoming req see
system.mem_ctrls.wrQLenPdf::4                       1                       # What write queue length does an incoming req see
system.mem_ctrls.wrQLenPdf::5                       1                       # What write queue length does an incoming req see
system.mem_ctrls.wrQLenPdf::6                       1                       # What write queue length does an incoming req see
system.mem_ctrls.wrQLenPdf::7                       1                       # What write queue length does an incoming req see
system.mem_ctrls.wrQLenPdf::8                       1                       # What write queue length does an incoming req see
system.mem_ctrls.wrQLenPdf::9                       1                       # What write queue length does an incoming req see
system.mem_ctrls.wrQLenPdf::10                      1                       # What write queue length does an incoming req see
system.mem_ctrls.wrQLenPdf::11                      1                       # What write queue length does an incoming req see
system.mem_ctrls.wrQLenPdf::12                      1                       # What write queue length does an incoming req see
system.mem_ctrls.wrQLenPdf::13                      1                       # What write queue length does an incoming req see
system.mem_ctrls.wrQLenPdf::14                      1                       # What write queue length does an incoming req see
system.mem_ctrls.wrQLenPdf::15                  12345                       # What write queue length does an incoming req see
system.mem_ctrls.wrQLenPdf::16                  12956                       # What write queue length does an incoming req see
system.mem_ctrls.wrQLenPdf::17                  21939                       # What write queue length does an incoming req see
system.mem_ctrls.wrQLenPdf::18                  24969                       # What write queue length does an incoming req see
system.mem_ctrls.wrQLenPdf::19                  26782                       # What write queue length does an incoming req see
system.mem_ctrls.wrQLenPdf::20                  27773                       # What write queue length does an incoming req see
system.mem_ctrls.wrQLenPdf::21                  27953                       # What write queue length does an incoming req see
system.mem_ctrls.wrQLenPdf::22                  27998                       # What write queue length does an incoming req see
system.mem_ctrls.wrQLenPdf::23                  28039                       # What write queue length does an incoming req see
system.mem_ctrls.wrQLenPdf::24                  27992                       # What write queue length does an incoming req see
system.mem_ctrls.wrQLenPdf::25                  27948                       # What write queue length does an incoming req see
system.mem_ctrls.wrQLenPdf::26                  27955                       # What write queue length does an incoming req see
system.mem_ctrls.wrQLenPdf::27                  28051                       # What write queue length does an incoming req see
system.mem_ctrls.wrQLenPdf::28                  28146                       # What write queue length does an incoming req see
system.mem_ctrls.wrQLenPdf::29                  28612                       # What write queue length does an incoming req see
system.mem_ctrls.wrQLenPdf::30                  29397                       # What write queue length does an incoming req see
system.mem_ctrls.wrQLenPdf::31                  28083                       # What write queue length does an incoming req see
system.mem_ctrls.wrQLenPdf::32                  28003                       # What write queue length does an incoming req see
system.mem_ctrls.wrQLenPdf::33                    144                       # What write queue length does an incoming req see
system.mem_ctrls.wrQLenPdf::34                     18                       # What write queue length does an incoming req see
system.mem_ctrls.wrQLenPdf::35                      7                       # What write queue length does an incoming req see
system.mem_ctrls.wrQLenPdf::36                      2                       # What write queue length does an incoming req see
system.mem_ctrls.wrQLenPdf::37                      1                       # What write queue length does an incoming req see
system.mem_ctrls.wrQLenPdf::38                      1                       # What write queue length does an incoming req see
system.mem_ctrls.wrQLenPdf::39                      0                       # What write queue length does an incoming req see
system.mem_ctrls.wrQLenPdf::40                      0                       # What write queue length does an incoming req see
system.mem_ctrls.wrQLenPdf::41                      0                       # What write queue length does an incoming req see
system.mem_ctrls.wrQLenPdf::42                      0                       # What write queue length does an incoming req see
system.mem_ctrls.wrQLenPdf::43                      0                       # What write queue length does an incoming req see
system.mem_ctrls.wrQLenPdf::44                      0                       # What write queue length does an incoming req see
system.mem_ctrls.wrQLenPdf::45                      0                       # What write queue length does an incoming req see
system.mem_ctrls.wrQLenPdf::46                      0                       # What write queue length does an incoming req see
system.mem_ctrls.wrQLenPdf::47                      0                       # What write queue length does an incoming req see
system.mem_ctrls.wrQLenPdf::48                      0                       # What write queue length does an incoming req see
system.mem_ctrls.wrQLenPdf::49                      0                       # What write queue length does an incoming req see
system.mem_ctrls.wrQLenPdf::50                      0                       # What write queue length does an incoming req see
system.mem_ctrls.wrQLenPdf::51                      0                       # What write queue length does an incoming req see
system.mem_ctrls.wrQLenPdf::52                      0                       # What write queue length does an incoming req see
system.mem_ctrls.wrQLenPdf::53                      0                       # What write queue length does an incoming req see
system.mem_ctrls.wrQLenPdf::54                      0                       # What write queue length does an incoming req see
system.mem_ctrls.wrQLenPdf::55                      0                       # What write queue length does an incoming req see
system.mem_ctrls.wrQLenPdf::56                      0                       # What write queue length does an incoming req see
system.mem_ctrls.wrQLenPdf::57                      0                       # What write queue length does an incoming req see
system.mem_ctrls.wrQLenPdf::58                      0                       # What write queue length does an incoming req see
system.mem_ctrls.wrQLenPdf::59                      0                       # What write queue length does an incoming req see
system.mem_ctrls.wrQLenPdf::60                      0                       # What write queue length does an incoming req see
system.mem_ctrls.wrQLenPdf::61                      0                       # What write queue length does an incoming req see
system.mem_ctrls.wrQLenPdf::62                      0                       # What write queue length does an incoming req see
system.mem_ctrls.wrQLenPdf::63                      0                       # What write queue length does an incoming req see
system.mem_ctrls.bytesPerActivate::samples       463306                       # Bytes accessed per row activation
system.mem_ctrls.bytesPerActivate::mean    152.077806                       # Bytes accessed per row activation
system.mem_ctrls.bytesPerActivate::gmean   102.652718                       # Bytes accessed per row activation
system.mem_ctrls.bytesPerActivate::stdev   198.044855                       # Bytes accessed per row activation
system.mem_ctrls.bytesPerActivate::0-127       292790     63.20%     63.20% # Bytes accessed per row activation
system.mem_ctrls.bytesPerActivate::128-255       102554     22.14%     85.33% # Bytes accessed per row activation
system.mem_ctrls.bytesPerActivate::256-383        26281      5.67%     91.00% # Bytes accessed per row activation
system.mem_ctrls.bytesPerActivate::384-511        12033      2.60%     93.60% # Bytes accessed per row activation
system.mem_ctrls.bytesPerActivate::512-639         7204      1.55%     95.16% # Bytes accessed per row activation
system.mem_ctrls.bytesPerActivate::640-767         4393      0.95%     96.10% # Bytes accessed per row activation
system.mem_ctrls.bytesPerActivate::768-895         3017      0.65%     96.76% # Bytes accessed per row activation
system.mem_ctrls.bytesPerActivate::896-1023         2542      0.55%     97.30% # Bytes accessed per row activation
system.mem_ctrls.bytesPerActivate::1024-1151        12492      2.70%    100.00% # Bytes accessed per row activation
system.mem_ctrls.bytesPerActivate::total       463306                       # Bytes accessed per row activation
system.mem_ctrls.rdPerTurnAround::samples        27339                       # Reads before turning the bus around for writes
system.mem_ctrls.rdPerTurnAround::mean      23.256739                       # Reads before turning the bus around for writes
system.mem_ctrls.rdPerTurnAround::gmean     19.006502                       # Reads before turning the bus around for writes
system.mem_ctrls.rdPerTurnAround::stdev    164.969362                       # Reads before turning the bus around for writes
system.mem_ctrls.rdPerTurnAround::0-1023        27319     99.93%     99.93% # Reads before turning the bus around for writes
system.mem_ctrls.rdPerTurnAround::1024-2047            5      0.02%     99.95% # Reads before turning the bus around for writes
system.mem_ctrls.rdPerTurnAround::2048-3071            9      0.03%     99.98% # Reads before turning the bus around for writes
system.mem_ctrls.rdPerTurnAround::3072-4095            2      0.01%     99.99% # Reads before turning the bus around for writes
system.mem_ctrls.rdPerTurnAround::7168-8191            1      0.00%     99.99% # Reads before turning the bus around for writes
system.mem_ctrls.rdPerTurnAround::10240-11263            1      0.00%     99.99% # Reads before turning the bus around for writes
system.mem_ctrls.rdPerTurnAround::13312-14335            1      0.00%    100.00% # Reads before turning the bus around for writes
system.mem_ctrls.rdPerTurnAround::16384-17407            1      0.00%    100.00% # Reads before turning the bus around for writes
system.mem_ctrls.rdPerTurnAround::total         27339                       # Reads before turning the bus around for writes
system.mem_ctrls.wrPerTurnAround::samples        27339                       # Writes before turning the bus around for reads
system.mem_ctrls.wrPerTurnAround::mean      17.012363                       # Writes before turning the bus around for reads
system.mem_ctrls.wrPerTurnAround::gmean     16.976931                       # Writes before turning the bus around for reads
system.mem_ctrls.wrPerTurnAround::stdev      1.107140                       # Writes before turning the bus around for reads
system.mem_ctrls.wrPerTurnAround::16            14180     51.87%     51.87% # Writes before turning the bus around for reads
system.mem_ctrls.wrPerTurnAround::17              627      2.29%     54.16% # Writes before turning the bus around for reads
system.mem_ctrls.wrPerTurnAround::18            10913     39.92%     94.08% # Writes before turning the bus around for reads
system.mem_ctrls.wrPerTurnAround::19             1302      4.76%     98.84% # Writes before turning the bus around for reads
system.mem_ctrls.wrPerTurnAround::20              271      0.99%     99.83% # Writes before turning the bus around for reads
system.mem_ctrls.wrPerTurnAround::21               43      0.16%     99.99% # Writes before turning the bus around for reads
system.mem_ctrls.wrPerTurnAround::22                2      0.01%    100.00% # Writes before turning the bus around for reads
system.mem_ctrls.wrPerTurnAround::23                1      0.00%    100.00% # Writes before turning the bus around for reads
system.mem_ctrls.wrPerTurnAround::total         27339                       # Writes before turning the bus around for reads
system.mem_ctrls.totQLat                  18133030500                       # Total ticks spent queuing
system.mem_ctrls.totMemAccLat             30054843000                       # Total ticks spent from burst creation until serviced by the DRAM
system.mem_ctrls.totBusLat                 3179150000                       # Total ticks spent in databus transfers
system.mem_ctrls.avgQLat                     28518.68                       # Average queueing delay per DRAM burst
system.mem_ctrls.avgBusLat                    5000.00                       # Average bus latency per DRAM burst
system.mem_ctrls.avgMemAccLat                47268.68                       # Average memory access latency per DRAM burst
system.mem_ctrls.avgRdBW                       102.61                       # Average DRAM read bandwidth in MiByte/s
system.mem_ctrls.avgWrBW                        75.06                       # Average achieved write bandwidth in MiByte/s
system.mem_ctrls.avgRdBWSys                    102.68                       # Average system read bandwidth in MiByte/s
system.mem_ctrls.avgWrBWSys                     75.06                       # Average system write bandwidth in MiByte/s
system.mem_ctrls.peakBW                      12800.00                       # Theoretical peak bandwidth in MiByte/s
system.mem_ctrls.busUtil                         1.39                       # Data bus utilization in percentage
system.mem_ctrls.busUtilRead                     0.80                       # Data bus utilization in percentage for reads
system.mem_ctrls.busUtilWrite                    0.59                       # Data bus utilization in percentage for writes
system.mem_ctrls.avgRdQLen                       1.10                       # Average read queue length when enqueuing
system.mem_ctrls.avgWrQLen                      24.65                       # Average write queue length when enqueuing
system.mem_ctrls.readRowHits                   378793                       # Number of row buffer hits during reads
system.mem_ctrls.writeRowHits                  258829                       # Number of row buffer hits during writes
system.mem_ctrls.readRowHitRate                 59.57                       # Row buffer hit rate for reads
system.mem_ctrls.writeRowHitRate                55.65                       # Row buffer hit rate for writes
system.mem_ctrls.avgGap                     360063.51                       # Average gap between requests
system.mem_ctrls.pageHitRate                    57.92                       # Row buffer hit rate, read and write combined
system.mem_ctrls_0.actEnergy               1707002640                       # Energy for activate commands per rank (pJ)
system.mem_ctrls_0.preEnergy                907293420                       # Energy for precharge commands per rank (pJ)
system.mem_ctrls_0.readEnergy              2290340640                       # Energy for read commands per rank (pJ)
system.mem_ctrls_0.writeEnergy             1235558340                       # Energy for write commands per rank (pJ)
system.mem_ctrls_0.refreshEnergy         15696676320.000004                       # Energy for refresh commands per rank (pJ)
system.mem_ctrls_0.actBackEnergy          12395657190                       # Energy for active background per rank (pJ)
system.mem_ctrls_0.preBackEnergy            712011840                       # Energy for precharge background per rank (pJ)
system.mem_ctrls_0.actPowerDownEnergy     49019000220                       # Energy for active power-down per rank (pJ)
system.mem_ctrls_0.prePowerDownEnergy     15081422880                       # Energy for precharge power-down per rank (pJ)
system.mem_ctrls_0.selfRefreshEnergy      54740580420                       # Energy for self refresh per rank (pJ)
system.mem_ctrls_0.totalEnergy           153789463020                       # Total energy per rank (pJ)
system.mem_ctrls_0.averagePower            387.788313                       # Core power per rank (mW)
system.mem_ctrls_0.totalIdleTime         367119424250                       # Total Idle time Per DRAM Rank
system.mem_ctrls_0.memoryStateTime::IDLE   1039692750                       # Time in different power states
system.mem_ctrls_0.memoryStateTime::REF    6659692000                       # Time in different power states
system.mem_ctrls_0.memoryStateTime::SREF 220762236500                       # Time in different power states
system.mem_ctrls_0.memoryStateTime::PRE_PDN  39274387000                       # Time in different power states
system.mem_ctrls_0.memoryStateTime::ACT   21346713750                       # Time in different power states
system.mem_ctrls_0.memoryStateTime::ACT_PDN 107498239000                       # Time in different power states
system.mem_ctrls_1.actEnergy               1601023620                       # Energy for activate commands per rank (pJ)
system.mem_ctrls_1.preEnergy                850952850                       # Energy for precharge commands per rank (pJ)
system.mem_ctrls_1.readEnergy              2249485560                       # Energy for read commands per rank (pJ)
system.mem_ctrls_1.writeEnergy             1192268880                       # Energy for write commands per rank (pJ)
system.mem_ctrls_1.refreshEnergy         15747691440.000004                       # Energy for refresh commands per rank (pJ)
system.mem_ctrls_1.actBackEnergy          12454643640                       # Energy for active background per rank (pJ)
system.mem_ctrls_1.preBackEnergy            722300640                       # Energy for precharge background per rank (pJ)
system.mem_ctrls_1.actPowerDownEnergy     48490349160                       # Energy for active power-down per rank (pJ)
system.mem_ctrls_1.prePowerDownEnergy     15143466720                       # Energy for precharge power-down per rank (pJ)
system.mem_ctrls_1.selfRefreshEnergy      55056383670                       # Energy for self refresh per rank (pJ)
system.mem_ctrls_1.totalEnergy           153512592750                       # Total energy per rank (pJ)
system.mem_ctrls_1.averagePower            387.090173                       # Core power per rank (mW)
system.mem_ctrls_1.totalIdleTime         367377915500                       # Total Idle time Per DRAM Rank
system.mem_ctrls_1.memoryStateTime::IDLE   1073439500                       # Time in different power states
system.mem_ctrls_1.memoryStateTime::REF    6682268000                       # Time in different power states
system.mem_ctrls_1.memoryStateTime::SREF 221603596500                       # Time in different power states
system.mem_ctrls_1.memoryStateTime::PRE_PDN  39435969000                       # Time in different power states
system.mem_ctrls_1.memoryStateTime::ACT   21447250250                       # Time in different power states
system.mem_ctrls_1.memoryStateTime::ACT_PDN 106338437750                       # Time in different power states
system.pwrStateResidencyTicks::UNDEFINED 1009805107000                       # Cumulative time (in ticks) in various power states
system.cpu_voltage_domain.voltage                   1                       # Voltage in Volts
system.cpu_clk_domain.clock                       500                       # Clock period in ticks
system.cpu.dstage2_mmu.stage2_tlb.walker.pwrStateResidencyTicks::UNDEFINED 1009805107000                       # Cumulative time (in ticks) in various power states
system.cpu.dstage2_mmu.stage2_tlb.walker.walks            0                       # Table walker walks requested
system.cpu.dstage2_mmu.stage2_tlb.walker.walkRequestOrigin_Requested::Data            0                       # Table walker requests started/completed, data/inst
system.cpu.dstage2_mmu.stage2_tlb.walker.walkRequestOrigin_Requested::Inst            0                       # Table walker requests started/completed, data/inst
system.cpu.dstage2_mmu.stage2_tlb.walker.walkRequestOrigin_Requested::total            0                       # Table walker requests started/completed, data/inst
system.cpu.dstage2_mmu.stage2_tlb.walker.walkRequestOrigin_Completed::Data            0                       # Table walker requests started/completed, data/inst
system.cpu.dstage2_mmu.stage2_tlb.walker.walkRequestOrigin_Completed::Inst            0                       # Table walker requests started/completed, data/inst
system.cpu.dstage2_mmu.stage2_tlb.walker.walkRequestOrigin_Completed::total            0                       # Table walker requests started/completed, data/inst
system.cpu.dstage2_mmu.stage2_tlb.walker.walkRequestOrigin::total            0                       # Table walker requests started/completed, data/inst
system.cpu.dstage2_mmu.stage2_tlb.inst_hits            0                       # ITB inst hits
system.cpu.dstage2_mmu.stage2_tlb.inst_misses            0                       # ITB inst misses
system.cpu.dstage2_mmu.stage2_tlb.read_hits            0                       # DTB read hits
system.cpu.dstage2_mmu.stage2_tlb.read_misses            0                       # DTB read misses
system.cpu.dstage2_mmu.stage2_tlb.write_hits            0                       # DTB write hits
system.cpu.dstage2_mmu.stage2_tlb.write_misses            0                       # DTB write misses
system.cpu.dstage2_mmu.stage2_tlb.flush_tlb            0                       # Number of times complete TLB was flushed
system.cpu.dstage2_mmu.stage2_tlb.flush_tlb_mva            0                       # Number of times TLB was flushed by MVA
system.cpu.dstage2_mmu.stage2_tlb.flush_tlb_mva_asid            0                       # Number of times TLB was flushed by MVA & ASID
system.cpu.dstage2_mmu.stage2_tlb.flush_tlb_asid            0                       # Number of times TLB was flushed by ASID
system.cpu.dstage2_mmu.stage2_tlb.flush_entries            0                       # Number of entries that have been flushed from TLB
system.cpu.dstage2_mmu.stage2_tlb.align_faults            0                       # Number of TLB faults due to alignment restrictions
system.cpu.dstage2_mmu.stage2_tlb.prefetch_faults            0                       # Number of TLB faults due to prefetch
system.cpu.dstage2_mmu.stage2_tlb.domain_faults            0                       # Number of TLB faults due to domain restrictions
system.cpu.dstage2_mmu.stage2_tlb.perms_faults            0                       # Number of TLB faults due to permissions restrictions
system.cpu.dstage2_mmu.stage2_tlb.read_accesses            0                       # DTB read accesses
system.cpu.dstage2_mmu.stage2_tlb.write_accesses            0                       # DTB write accesses
system.cpu.dstage2_mmu.stage2_tlb.inst_accesses            0                       # ITB inst accesses
system.cpu.dstage2_mmu.stage2_tlb.hits              0                       # DTB hits
system.cpu.dstage2_mmu.stage2_tlb.misses            0                       # DTB misses
system.cpu.dstage2_mmu.stage2_tlb.accesses            0                       # DTB accesses
system.cpu.dtb.walker.pwrStateResidencyTicks::UNDEFINED 1009805107000                       # Cumulative time (in ticks) in various power states
system.cpu.dtb.walker.walks                         0                       # Table walker walks requested
system.cpu.dtb.walker.walkRequestOrigin_Requested::Data            0                       # Table walker requests started/completed, data/inst
system.cpu.dtb.walker.walkRequestOrigin_Requested::Inst            0                       # Table walker requests started/completed, data/inst
system.cpu.dtb.walker.walkRequestOrigin_Requested::total            0                       # Table walker requests started/completed, data/inst
system.cpu.dtb.walker.walkRequestOrigin_Completed::Data            0                       # Table walker requests started/completed, data/inst
system.cpu.dtb.walker.walkRequestOrigin_Completed::Inst            0                       # Table walker requests started/completed, data/inst
system.cpu.dtb.walker.walkRequestOrigin_Completed::total            0                       # Table walker requests started/completed, data/inst
system.cpu.dtb.walker.walkRequestOrigin::total            0                       # Table walker requests started/completed, data/inst
system.cpu.dtb.inst_hits                            0                       # ITB inst hits
system.cpu.dtb.inst_misses                          0                       # ITB inst misses
system.cpu.dtb.read_hits                            0                       # DTB read hits
system.cpu.dtb.read_misses                          0                       # DTB read misses
system.cpu.dtb.write_hits                           0                       # DTB write hits
system.cpu.dtb.write_misses                         0                       # DTB write misses
system.cpu.dtb.flush_tlb                            0                       # Number of times complete TLB was flushed
system.cpu.dtb.flush_tlb_mva                        0                       # Number of times TLB was flushed by MVA
system.cpu.dtb.flush_tlb_mva_asid                   0                       # Number of times TLB was flushed by MVA & ASID
system.cpu.dtb.flush_tlb_asid                       0                       # Number of times TLB was flushed by ASID
system.cpu.dtb.flush_entries                        0                       # Number of entries that have been flushed from TLB
system.cpu.dtb.align_faults                         0                       # Number of TLB faults due to alignment restrictions
system.cpu.dtb.prefetch_faults                      0                       # Number of TLB faults due to prefetch
system.cpu.dtb.domain_faults                        0                       # Number of TLB faults due to domain restrictions
system.cpu.dtb.perms_faults                         0                       # Number of TLB faults due to permissions restrictions
system.cpu.dtb.read_accesses                        0                       # DTB read accesses
system.cpu.dtb.write_accesses                       0                       # DTB write accesses
system.cpu.dtb.inst_accesses                        0                       # ITB inst accesses
system.cpu.dtb.hits                                 0                       # DTB hits
system.cpu.dtb.misses                               0                       # DTB misses
system.cpu.dtb.accesses                             0                       # DTB accesses
system.cpu.istage2_mmu.stage2_tlb.walker.pwrStateResidencyTicks::UNDEFINED 1009805107000                       # Cumulative time (in ticks) in various power states
system.cpu.istage2_mmu.stage2_tlb.walker.walks            0                       # Table walker walks requested
system.cpu.istage2_mmu.stage2_tlb.walker.walkRequestOrigin_Requested::Data            0                       # Table walker requests started/completed, data/inst
system.cpu.istage2_mmu.stage2_tlb.walker.walkRequestOrigin_Requested::Inst            0                       # Table walker requests started/completed, data/inst
system.cpu.istage2_mmu.stage2_tlb.walker.walkRequestOrigin_Requested::total            0                       # Table walker requests started/completed, data/inst
system.cpu.istage2_mmu.stage2_tlb.walker.walkRequestOrigin_Completed::Data            0                       # Table walker requests started/completed, data/inst
system.cpu.istage2_mmu.stage2_tlb.walker.walkRequestOrigin_Completed::Inst            0                       # Table walker requests started/completed, data/inst
system.cpu.istage2_mmu.stage2_tlb.walker.walkRequestOrigin_Completed::total            0                       # Table walker requests started/completed, data/inst
system.cpu.istage2_mmu.stage2_tlb.walker.walkRequestOrigin::total            0                       # Table walker requests started/completed, data/inst
system.cpu.istage2_mmu.stage2_tlb.inst_hits            0                       # ITB inst hits
system.cpu.istage2_mmu.stage2_tlb.inst_misses            0                       # ITB inst misses
system.cpu.istage2_mmu.stage2_tlb.read_hits            0                       # DTB read hits
system.cpu.istage2_mmu.stage2_tlb.read_misses            0                       # DTB read misses
system.cpu.istage2_mmu.stage2_tlb.write_hits            0                       # DTB write hits
system.cpu.istage2_mmu.stage2_tlb.write_misses            0                       # DTB write misses
system.cpu.istage2_mmu.stage2_tlb.flush_tlb            0                       # Number of times complete TLB was flushed
system.cpu.istage2_mmu.stage2_tlb.flush_tlb_mva            0                       # Number of times TLB was flushed by MVA
system.cpu.istage2_mmu.stage2_tlb.flush_tlb_mva_asid            0                       # Number of times TLB was flushed by MVA & ASID
system.cpu.istage2_mmu.stage2_tlb.flush_tlb_asid            0                       # Number of times TLB was flushed by ASID
system.cpu.istage2_mmu.stage2_tlb.flush_entries            0                       # Number of entries that have been flushed from TLB
system.cpu.istage2_mmu.stage2_tlb.align_faults            0                       # Number of TLB faults due to alignment restrictions
system.cpu.istage2_mmu.stage2_tlb.prefetch_faults            0                       # Number of TLB faults due to prefetch
system.cpu.istage2_mmu.stage2_tlb.domain_faults            0                       # Number of TLB faults due to domain restrictions
system.cpu.istage2_mmu.stage2_tlb.perms_faults            0                       # Number of TLB faults due to permissions restrictions
system.cpu.istage2_mmu.stage2_tlb.read_accesses            0                       # DTB read accesses
system.cpu.istage2_mmu.stage2_tlb.write_accesses            0                       # DTB write accesses
system.cpu.istage2_mmu.stage2_tlb.inst_accesses            0                       # ITB inst accesses
system.cpu.istage2_mmu.stage2_tlb.hits              0                       # DTB hits
system.cpu.istage2_mmu.stage2_tlb.misses            0                       # DTB misses
system.cpu.istage2_mmu.stage2_tlb.accesses            0                       # DTB accesses
system.cpu.itb.walker.pwrStateResidencyTicks::UNDEFINED 1009805107000                       # Cumulative time (in ticks) in various power states
system.cpu.itb.walker.walks                         0                       # Table walker walks requested
system.cpu.itb.walker.walkRequestOrigin_Requested::Data            0                       # Table walker requests started/completed, data/inst
system.cpu.itb.walker.walkRequestOrigin_Requested::Inst            0                       # Table walker requests started/completed, data/inst
system.cpu.itb.walker.walkRequestOrigin_Requested::total            0                       # Table walker requests started/completed, data/inst
system.cpu.itb.walker.walkRequestOrigin_Completed::Data            0                       # Table walker requests started/completed, data/inst
system.cpu.itb.walker.walkRequestOrigin_Completed::Inst            0                       # Table walker requests started/completed, data/inst
system.cpu.itb.walker.walkRequestOrigin_Completed::total            0                       # Table walker requests started/completed, data/inst
system.cpu.itb.walker.walkRequestOrigin::total            0                       # Table walker requests started/completed, data/inst
system.cpu.itb.inst_hits                            0                       # ITB inst hits
system.cpu.itb.inst_misses                          0                       # ITB inst misses
system.cpu.itb.read_hits                            0                       # DTB read hits
system.cpu.itb.read_misses                          0                       # DTB read misses
system.cpu.itb.write_hits                           0                       # DTB write hits
system.cpu.itb.write_misses                         0                       # DTB write misses
system.cpu.itb.flush_tlb                            0                       # Number of times complete TLB was flushed
system.cpu.itb.flush_tlb_mva                        0                       # Number of times TLB was flushed by MVA
system.cpu.itb.flush_tlb_mva_asid                   0                       # Number of times TLB was flushed by MVA & ASID
system.cpu.itb.flush_tlb_asid                       0                       # Number of times TLB was flushed by ASID
system.cpu.itb.flush_entries                        0                       # Number of entries that have been flushed from TLB
system.cpu.itb.align_faults                         0                       # Number of TLB faults due to alignment restrictions
system.cpu.itb.prefetch_faults                      0                       # Number of TLB faults due to prefetch
system.cpu.itb.domain_faults                        0                       # Number of TLB faults due to domain restrictions
system.cpu.itb.perms_faults                         0                       # Number of TLB faults due to permissions restrictions
system.cpu.itb.read_accesses                        0                       # DTB read accesses
system.cpu.itb.write_accesses                       0                       # DTB write accesses
system.cpu.itb.inst_accesses                        0                       # ITB inst accesses
system.cpu.itb.hits                                 0                       # DTB hits
system.cpu.itb.misses                               0                       # DTB misses
system.cpu.itb.accesses                             0                       # DTB accesses
system.cpu.workload.numSyscalls                     0                       # Number of system calls
system.cpu.pwrStateResidencyTicks::ON    1009805107000                       # Cumulative time (in ticks) in various power states
system.cpu.numCycles                                0                       # number of cpu cycles simulated
system.cpu.numWorkItemsStarted                      0                       # number of work items this cpu started
system.cpu.numWorkItemsCompleted                    0                       # number of work items this cpu completed
system.cpu.committedInsts                           0                       # Number of instructions committed
system.cpu.committedOps                             0                       # Number of ops (including micro ops) committed
system.cpu.num_int_alu_accesses                     0                       # Number of integer alu accesses
system.cpu.num_fp_alu_accesses                      0                       # Number of float alu accesses
system.cpu.num_vec_alu_accesses                     0                       # Number of vector alu accesses
system.cpu.num_func_calls                           0                       # number of times a function call or return occured
system.cpu.num_conditional_control_insts            0                       # number of instructions that are conditional controls
system.cpu.num_int_insts                            0                       # number of integer instructions
system.cpu.num_fp_insts                             0                       # number of float instructions
system.cpu.num_vec_insts                            0                       # number of vector instructions
system.cpu.num_int_register_reads                   0                       # number of times the integer registers were read
system.cpu.num_int_register_writes                  0                       # number of times the integer registers were written
system.cpu.num_fp_register_reads                    0                       # number of times the floating registers were read
system.cpu.num_fp_register_writes                   0                       # number of times the floating registers were written
system.cpu.num_vec_register_reads                   0                       # number of times the vector registers were read
system.cpu.num_vec_register_writes                  0                       # number of times the vector registers were written
system.cpu.num_mem_refs                             0                       # number of memory refs
system.cpu.num_load_insts                           0                       # Number of load instructions
system.cpu.num_store_insts                          0                       # Number of store instructions
system.cpu.num_idle_cycles                          0                       # Number of idle cycles
system.cpu.num_busy_cycles                          0                       # Number of busy cycles
system.cpu.not_idle_fraction                        1                       # Percentage of non-idle cycles
system.cpu.idle_fraction                            0                       # Percentage of idle cycles
system.cpu.op_class::No_OpClass                     0                       # Class of executed instruction
system.cpu.op_class::IntAlu                         0                       # Class of executed instruction
system.cpu.op_class::IntMult                        0                       # Class of executed instruction
system.cpu.op_class::IntDiv                         0                       # Class of executed instruction
system.cpu.op_class::FloatAdd                       0                       # Class of executed instruction
system.cpu.op_class::FloatCmp                       0                       # Class of executed instruction
system.cpu.op_class::FloatCvt                       0                       # Class of executed instruction
system.cpu.op_class::FloatMult                      0                       # Class of executed instruction
system.cpu.op_class::FloatMultAcc                   0                       # Class of executed instruction
system.cpu.op_class::FloatDiv                       0                       # Class of executed instruction
system.cpu.op_class::FloatMisc                      0                       # Class of executed instruction
system.cpu.op_class::FloatSqrt                      0                       # Class of executed instruction
system.cpu.op_class::SimdAdd                        0                       # Class of executed instruction
system.cpu.op_class::SimdAddAcc                     0                       # Class of executed instruction
system.cpu.op_class::SimdAlu                        0                       # Class of executed instruction
system.cpu.op_class::SimdCmp                        0                       # Class of executed instruction
system.cpu.op_class::SimdCvt                        0                       # Class of executed instruction
system.cpu.op_class::SimdMisc                       0                       # Class of executed instruction
system.cpu.op_class::SimdMult                       0                       # Class of executed instruction
system.cpu.op_class::SimdMultAcc                    0                       # Class of executed instruction
system.cpu.op_class::SimdShift                      0                       # Class of executed instruction
system.cpu.op_class::SimdShiftAcc                   0                       # Class of executed instruction
system.cpu.op_class::SimdSqrt                       0                       # Class of executed instruction
system.cpu.op_class::SimdFloatAdd                   0                       # Class of executed instruction
system.cpu.op_class::SimdFloatAlu                   0                       # Class of executed instruction
system.cpu.op_class::SimdFloatCmp                   0                       # Class of executed instruction
system.cpu.op_class::SimdFloatCvt                   0                       # Class of executed instruction
system.cpu.op_class::SimdFloatDiv                   0                       # Class of executed instruction
system.cpu.op_class::SimdFloatMisc                  0                       # Class of executed instruction
system.cpu.op_class::SimdFloatMult                  0                       # Class of executed instruction
system.cpu.op_class::SimdFloatMultAcc               0                       # Class of executed instruction
system.cpu.op_class::SimdFloatSqrt                  0                       # Class of executed instruction
system.cpu.op_class::MemRead                        0                       # Class of executed instruction
system.cpu.op_class::MemWrite                       0                       # Class of executed instruction
system.cpu.op_class::FloatMemRead                   0                       # Class of executed instruction
system.cpu.op_class::FloatMemWrite                  0                       # Class of executed instruction
system.cpu.op_class::IprAccess                      0                       # Class of executed instruction
system.cpu.op_class::InstPrefetch                   0                       # Class of executed instruction
system.cpu.op_class::total                          0                       # Class of executed instruction
system.cpu.dcache.tags.pwrStateResidencyTicks::UNDEFINED 1009805107000                       # Cumulative time (in ticks) in various power states
system.cpu.dcache.tags.replacements           6439606                       # number of replacements
system.cpu.dcache.tags.tagsinuse                 1024                       # Cycle average of tags in use
system.cpu.dcache.tags.total_refs           418572894                       # Total number of references to valid blocks.
system.cpu.dcache.tags.sampled_refs           6440630                       # Sample count of references to valid blocks.
system.cpu.dcache.tags.avg_refs             64.989433                       # Average number of references to valid blocks.
system.cpu.dcache.tags.warmup_cycle                 0                       # Cycle when the warmup percentage was hit.
system.cpu.dcache.tags.occ_blocks::cpu.data     0.770618                       # Average occupied blocks per requestor
system.cpu.dcache.tags.occ_blocks::switch_cpus.data  1023.229382                       # Average occupied blocks per requestor
system.cpu.dcache.tags.occ_percent::cpu.data     0.000753                       # Average percentage of cache occupancy
system.cpu.dcache.tags.occ_percent::switch_cpus.data     0.999247                       # Average percentage of cache occupancy
system.cpu.dcache.tags.occ_percent::total            1                       # Average percentage of cache occupancy
system.cpu.dcache.tags.occ_task_id_blocks::1024         1024                       # Occupied blocks per task id
system.cpu.dcache.tags.age_task_id_blocks_1024::0          392                       # Occupied blocks per task id
system.cpu.dcache.tags.age_task_id_blocks_1024::1          161                       # Occupied blocks per task id
system.cpu.dcache.tags.age_task_id_blocks_1024::2          471                       # Occupied blocks per task id
system.cpu.dcache.tags.occ_task_id_percent::1024            1                       # Percentage of cache occupancy per task id
system.cpu.dcache.tags.tag_accesses         861190752                       # Number of tag accesses
system.cpu.dcache.tags.data_accesses        861190752                       # Number of data accesses
system.cpu.dcache.pwrStateResidencyTicks::UNDEFINED 1009805107000                       # Cumulative time (in ticks) in various power states
system.cpu.dcache.ReadReq_hits::switch_cpus.data    279002059                       # number of ReadReq hits
system.cpu.dcache.ReadReq_hits::total       279002059                       # number of ReadReq hits
system.cpu.dcache.WriteReq_hits::switch_cpus.data    136451965                       # number of WriteReq hits
system.cpu.dcache.WriteReq_hits::total      136451965                       # number of WriteReq hits
system.cpu.dcache.SoftPFReq_hits::switch_cpus.data        19551                       # number of SoftPFReq hits
system.cpu.dcache.SoftPFReq_hits::total         19551                       # number of SoftPFReq hits
system.cpu.dcache.demand_hits::switch_cpus.data    415454024                       # number of demand (read+write) hits
system.cpu.dcache.demand_hits::total        415454024                       # number of demand (read+write) hits
system.cpu.dcache.overall_hits::switch_cpus.data    415473575                       # number of overall hits
system.cpu.dcache.overall_hits::total       415473575                       # number of overall hits
system.cpu.dcache.ReadReq_misses::switch_cpus.data      8756214                       # number of ReadReq misses
system.cpu.dcache.ReadReq_misses::total       8756214                       # number of ReadReq misses
system.cpu.dcache.WriteReq_misses::switch_cpus.data      3082860                       # number of WriteReq misses
system.cpu.dcache.WriteReq_misses::total      3082860                       # number of WriteReq misses
system.cpu.dcache.SoftPFReq_misses::switch_cpus.data        62924                       # number of SoftPFReq misses
system.cpu.dcache.SoftPFReq_misses::total        62924                       # number of SoftPFReq misses
system.cpu.dcache.demand_misses::switch_cpus.data     11839074                       # number of demand (read+write) misses
system.cpu.dcache.demand_misses::total       11839074                       # number of demand (read+write) misses
system.cpu.dcache.overall_misses::switch_cpus.data     11901998                       # number of overall misses
system.cpu.dcache.overall_misses::total      11901998                       # number of overall misses
system.cpu.dcache.ReadReq_miss_latency::switch_cpus.data 155400459000                       # number of ReadReq miss cycles
system.cpu.dcache.ReadReq_miss_latency::total 155400459000                       # number of ReadReq miss cycles
system.cpu.dcache.WriteReq_miss_latency::switch_cpus.data 126967237095                       # number of WriteReq miss cycles
system.cpu.dcache.WriteReq_miss_latency::total 126967237095                       # number of WriteReq miss cycles
system.cpu.dcache.demand_miss_latency::switch_cpus.data 282367696095                       # number of demand (read+write) miss cycles
system.cpu.dcache.demand_miss_latency::total 282367696095                       # number of demand (read+write) miss cycles
system.cpu.dcache.overall_miss_latency::switch_cpus.data 282367696095                       # number of overall miss cycles
system.cpu.dcache.overall_miss_latency::total 282367696095                       # number of overall miss cycles
system.cpu.dcache.ReadReq_accesses::switch_cpus.data    287758273                       # number of ReadReq accesses(hits+misses)
system.cpu.dcache.ReadReq_accesses::total    287758273                       # number of ReadReq accesses(hits+misses)
system.cpu.dcache.WriteReq_accesses::switch_cpus.data    139534825                       # number of WriteReq accesses(hits+misses)
system.cpu.dcache.WriteReq_accesses::total    139534825                       # number of WriteReq accesses(hits+misses)
system.cpu.dcache.SoftPFReq_accesses::switch_cpus.data        82475                       # number of SoftPFReq accesses(hits+misses)
system.cpu.dcache.SoftPFReq_accesses::total        82475                       # number of SoftPFReq accesses(hits+misses)
system.cpu.dcache.demand_accesses::switch_cpus.data    427293098                       # number of demand (read+write) accesses
system.cpu.dcache.demand_accesses::total    427293098                       # number of demand (read+write) accesses
system.cpu.dcache.overall_accesses::switch_cpus.data    427375573                       # number of overall (read+write) accesses
system.cpu.dcache.overall_accesses::total    427375573                       # number of overall (read+write) accesses
system.cpu.dcache.ReadReq_miss_rate::switch_cpus.data     0.030429                       # miss rate for ReadReq accesses
system.cpu.dcache.ReadReq_miss_rate::total     0.030429                       # miss rate for ReadReq accesses
system.cpu.dcache.WriteReq_miss_rate::switch_cpus.data     0.022094                       # miss rate for WriteReq accesses
system.cpu.dcache.WriteReq_miss_rate::total     0.022094                       # miss rate for WriteReq accesses
system.cpu.dcache.SoftPFReq_miss_rate::switch_cpus.data     0.762946                       # miss rate for SoftPFReq accesses
system.cpu.dcache.SoftPFReq_miss_rate::total     0.762946                       # miss rate for SoftPFReq accesses
system.cpu.dcache.demand_miss_rate::switch_cpus.data     0.027707                       # miss rate for demand accesses
system.cpu.dcache.demand_miss_rate::total     0.027707                       # miss rate for demand accesses
system.cpu.dcache.overall_miss_rate::switch_cpus.data     0.027849                       # miss rate for overall accesses
system.cpu.dcache.overall_miss_rate::total     0.027849                       # miss rate for overall accesses
system.cpu.dcache.ReadReq_avg_miss_latency::switch_cpus.data 17747.448726                       # average ReadReq miss latency
system.cpu.dcache.ReadReq_avg_miss_latency::total 17747.448726                       # average ReadReq miss latency
system.cpu.dcache.WriteReq_avg_miss_latency::switch_cpus.data 41184.885819                       # average WriteReq miss latency
system.cpu.dcache.WriteReq_avg_miss_latency::total 41184.885819                       # average WriteReq miss latency
system.cpu.dcache.demand_avg_miss_latency::switch_cpus.data 23850.488315                       # average overall miss latency
system.cpu.dcache.demand_avg_miss_latency::total 23850.488315                       # average overall miss latency
system.cpu.dcache.overall_avg_miss_latency::switch_cpus.data 23724.394517                       # average overall miss latency
system.cpu.dcache.overall_avg_miss_latency::total 23724.394517                       # average overall miss latency
system.cpu.dcache.blocked_cycles::no_mshrs      7087883                       # number of cycles access was blocked
system.cpu.dcache.blocked_cycles::no_targets            0                       # number of cycles access was blocked
system.cpu.dcache.blocked::no_mshrs            751123                       # number of cycles access was blocked
system.cpu.dcache.blocked::no_targets               0                       # number of cycles access was blocked
system.cpu.dcache.avg_blocked_cycles::no_mshrs     9.436381                       # average number of cycles each access was blocked
system.cpu.dcache.avg_blocked_cycles::no_targets          nan                       # average number of cycles each access was blocked
system.cpu.dcache.writebacks::writebacks      3669858                       # number of writebacks
system.cpu.dcache.writebacks::total           3669858                       # number of writebacks
system.cpu.dcache.ReadReq_mshr_hits::switch_cpus.data      4141165                       # number of ReadReq MSHR hits
system.cpu.dcache.ReadReq_mshr_hits::total      4141165                       # number of ReadReq MSHR hits
system.cpu.dcache.WriteReq_mshr_hits::switch_cpus.data      1289689                       # number of WriteReq MSHR hits
system.cpu.dcache.WriteReq_mshr_hits::total      1289689                       # number of WriteReq MSHR hits
system.cpu.dcache.demand_mshr_hits::switch_cpus.data      5430854                       # number of demand (read+write) MSHR hits
system.cpu.dcache.demand_mshr_hits::total      5430854                       # number of demand (read+write) MSHR hits
system.cpu.dcache.overall_mshr_hits::switch_cpus.data      5430854                       # number of overall MSHR hits
system.cpu.dcache.overall_mshr_hits::total      5430854                       # number of overall MSHR hits
system.cpu.dcache.ReadReq_mshr_misses::switch_cpus.data      4615049                       # number of ReadReq MSHR misses
system.cpu.dcache.ReadReq_mshr_misses::total      4615049                       # number of ReadReq MSHR misses
system.cpu.dcache.WriteReq_mshr_misses::switch_cpus.data      1793171                       # number of WriteReq MSHR misses
system.cpu.dcache.WriteReq_mshr_misses::total      1793171                       # number of WriteReq MSHR misses
system.cpu.dcache.SoftPFReq_mshr_misses::switch_cpus.data        31386                       # number of SoftPFReq MSHR misses
system.cpu.dcache.SoftPFReq_mshr_misses::total        31386                       # number of SoftPFReq MSHR misses
system.cpu.dcache.demand_mshr_misses::switch_cpus.data      6408220                       # number of demand (read+write) MSHR misses
system.cpu.dcache.demand_mshr_misses::total      6408220                       # number of demand (read+write) MSHR misses
system.cpu.dcache.overall_mshr_misses::switch_cpus.data      6439606                       # number of overall MSHR misses
system.cpu.dcache.overall_mshr_misses::total      6439606                       # number of overall MSHR misses
system.cpu.dcache.ReadReq_mshr_miss_latency::switch_cpus.data  74362455000                       # number of ReadReq MSHR miss cycles
system.cpu.dcache.ReadReq_mshr_miss_latency::total  74362455000                       # number of ReadReq MSHR miss cycles
system.cpu.dcache.WriteReq_mshr_miss_latency::switch_cpus.data  53153917739                       # number of WriteReq MSHR miss cycles
system.cpu.dcache.WriteReq_mshr_miss_latency::total  53153917739                       # number of WriteReq MSHR miss cycles
system.cpu.dcache.SoftPFReq_mshr_miss_latency::switch_cpus.data   2847735500                       # number of SoftPFReq MSHR miss cycles
system.cpu.dcache.SoftPFReq_mshr_miss_latency::total   2847735500                       # number of SoftPFReq MSHR miss cycles
system.cpu.dcache.demand_mshr_miss_latency::switch_cpus.data 127516372739                       # number of demand (read+write) MSHR miss cycles
system.cpu.dcache.demand_mshr_miss_latency::total 127516372739                       # number of demand (read+write) MSHR miss cycles
system.cpu.dcache.overall_mshr_miss_latency::switch_cpus.data 130364108239                       # number of overall MSHR miss cycles
system.cpu.dcache.overall_mshr_miss_latency::total 130364108239                       # number of overall MSHR miss cycles
system.cpu.dcache.ReadReq_mshr_miss_rate::switch_cpus.data     0.016038                       # mshr miss rate for ReadReq accesses
system.cpu.dcache.ReadReq_mshr_miss_rate::total     0.016038                       # mshr miss rate for ReadReq accesses
system.cpu.dcache.WriteReq_mshr_miss_rate::switch_cpus.data     0.012851                       # mshr miss rate for WriteReq accesses
system.cpu.dcache.WriteReq_mshr_miss_rate::total     0.012851                       # mshr miss rate for WriteReq accesses
system.cpu.dcache.SoftPFReq_mshr_miss_rate::switch_cpus.data     0.380552                       # mshr miss rate for SoftPFReq accesses
system.cpu.dcache.SoftPFReq_mshr_miss_rate::total     0.380552                       # mshr miss rate for SoftPFReq accesses
system.cpu.dcache.demand_mshr_miss_rate::switch_cpus.data     0.014997                       # mshr miss rate for demand accesses
system.cpu.dcache.demand_mshr_miss_rate::total     0.014997                       # mshr miss rate for demand accesses
system.cpu.dcache.overall_mshr_miss_rate::switch_cpus.data     0.015068                       # mshr miss rate for overall accesses
system.cpu.dcache.overall_mshr_miss_rate::total     0.015068                       # mshr miss rate for overall accesses
system.cpu.dcache.ReadReq_avg_mshr_miss_latency::switch_cpus.data 16113.036936                       # average ReadReq mshr miss latency
system.cpu.dcache.ReadReq_avg_mshr_miss_latency::total 16113.036936                       # average ReadReq mshr miss latency
system.cpu.dcache.WriteReq_avg_mshr_miss_latency::switch_cpus.data 29642.414326                       # average WriteReq mshr miss latency
system.cpu.dcache.WriteReq_avg_mshr_miss_latency::total 29642.414326                       # average WriteReq mshr miss latency
system.cpu.dcache.SoftPFReq_avg_mshr_miss_latency::switch_cpus.data 90732.667431                       # average SoftPFReq mshr miss latency
system.cpu.dcache.SoftPFReq_avg_mshr_miss_latency::total 90732.667431                       # average SoftPFReq mshr miss latency
system.cpu.dcache.demand_avg_mshr_miss_latency::switch_cpus.data 19898.875622                       # average overall mshr miss latency
system.cpu.dcache.demand_avg_mshr_miss_latency::total 19898.875622                       # average overall mshr miss latency
system.cpu.dcache.overall_avg_mshr_miss_latency::switch_cpus.data 20244.112487                       # average overall mshr miss latency
system.cpu.dcache.overall_avg_mshr_miss_latency::total 20244.112487                       # average overall mshr miss latency
system.cpu.icache.tags.pwrStateResidencyTicks::UNDEFINED 1009805107000                       # Cumulative time (in ticks) in various power states
system.cpu.icache.tags.replacements               106                       # number of replacements
system.cpu.icache.tags.tagsinuse           462.958593                       # Cycle average of tags in use
system.cpu.icache.tags.total_refs          1223809822                       # Total number of references to valid blocks.
system.cpu.icache.tags.sampled_refs               569                       # Sample count of references to valid blocks.
system.cpu.icache.tags.avg_refs          2150808.123023                       # Average number of references to valid blocks.
system.cpu.icache.tags.warmup_cycle                 0                       # Cycle when the warmup percentage was hit.
system.cpu.icache.tags.occ_blocks::cpu.inst   426.775641                       # Average occupied blocks per requestor
system.cpu.icache.tags.occ_blocks::switch_cpus.inst    36.182952                       # Average occupied blocks per requestor
system.cpu.icache.tags.occ_percent::cpu.inst     0.833546                       # Average percentage of cache occupancy
system.cpu.icache.tags.occ_percent::switch_cpus.inst     0.070670                       # Average percentage of cache occupancy
system.cpu.icache.tags.occ_percent::total     0.904216                       # Average percentage of cache occupancy
system.cpu.icache.tags.occ_task_id_blocks::1024          463                       # Occupied blocks per task id
system.cpu.icache.tags.age_task_id_blocks_1024::4          463                       # Occupied blocks per task id
system.cpu.icache.tags.occ_task_id_percent::1024     0.904297                       # Percentage of cache occupancy per task id
system.cpu.icache.tags.tag_accesses         378389711                       # Number of tag accesses
system.cpu.icache.tags.data_accesses        378389711                       # Number of data accesses
system.cpu.icache.pwrStateResidencyTicks::UNDEFINED 1009805107000                       # Cumulative time (in ticks) in various power states
system.cpu.icache.ReadReq_hits::switch_cpus.inst    189194659                       # number of ReadReq hits
system.cpu.icache.ReadReq_hits::total       189194659                       # number of ReadReq hits
system.cpu.icache.demand_hits::switch_cpus.inst    189194659                       # number of demand (read+write) hits
system.cpu.icache.demand_hits::total        189194659                       # number of demand (read+write) hits
system.cpu.icache.overall_hits::switch_cpus.inst    189194659                       # number of overall hits
system.cpu.icache.overall_hits::total       189194659                       # number of overall hits
system.cpu.icache.ReadReq_misses::switch_cpus.inst          142                       # number of ReadReq misses
system.cpu.icache.ReadReq_misses::total           142                       # number of ReadReq misses
system.cpu.icache.demand_misses::switch_cpus.inst          142                       # number of demand (read+write) misses
system.cpu.icache.demand_misses::total            142                       # number of demand (read+write) misses
system.cpu.icache.overall_misses::switch_cpus.inst          142                       # number of overall misses
system.cpu.icache.overall_misses::total           142                       # number of overall misses
system.cpu.icache.ReadReq_miss_latency::switch_cpus.inst     23766000                       # number of ReadReq miss cycles
system.cpu.icache.ReadReq_miss_latency::total     23766000                       # number of ReadReq miss cycles
system.cpu.icache.demand_miss_latency::switch_cpus.inst     23766000                       # number of demand (read+write) miss cycles
system.cpu.icache.demand_miss_latency::total     23766000                       # number of demand (read+write) miss cycles
system.cpu.icache.overall_miss_latency::switch_cpus.inst     23766000                       # number of overall miss cycles
system.cpu.icache.overall_miss_latency::total     23766000                       # number of overall miss cycles
system.cpu.icache.ReadReq_accesses::switch_cpus.inst    189194801                       # number of ReadReq accesses(hits+misses)
system.cpu.icache.ReadReq_accesses::total    189194801                       # number of ReadReq accesses(hits+misses)
system.cpu.icache.demand_accesses::switch_cpus.inst    189194801                       # number of demand (read+write) accesses
system.cpu.icache.demand_accesses::total    189194801                       # number of demand (read+write) accesses
system.cpu.icache.overall_accesses::switch_cpus.inst    189194801                       # number of overall (read+write) accesses
system.cpu.icache.overall_accesses::total    189194801                       # number of overall (read+write) accesses
system.cpu.icache.ReadReq_miss_rate::switch_cpus.inst     0.000001                       # miss rate for ReadReq accesses
system.cpu.icache.ReadReq_miss_rate::total     0.000001                       # miss rate for ReadReq accesses
system.cpu.icache.demand_miss_rate::switch_cpus.inst     0.000001                       # miss rate for demand accesses
system.cpu.icache.demand_miss_rate::total     0.000001                       # miss rate for demand accesses
system.cpu.icache.overall_miss_rate::switch_cpus.inst     0.000001                       # miss rate for overall accesses
system.cpu.icache.overall_miss_rate::total     0.000001                       # miss rate for overall accesses
system.cpu.icache.ReadReq_avg_miss_latency::switch_cpus.inst 167366.197183                       # average ReadReq miss latency
system.cpu.icache.ReadReq_avg_miss_latency::total 167366.197183                       # average ReadReq miss latency
system.cpu.icache.demand_avg_miss_latency::switch_cpus.inst 167366.197183                       # average overall miss latency
system.cpu.icache.demand_avg_miss_latency::total 167366.197183                       # average overall miss latency
system.cpu.icache.overall_avg_miss_latency::switch_cpus.inst 167366.197183                       # average overall miss latency
system.cpu.icache.overall_avg_miss_latency::total 167366.197183                       # average overall miss latency
system.cpu.icache.blocked_cycles::no_mshrs            0                       # number of cycles access was blocked
system.cpu.icache.blocked_cycles::no_targets            0                       # number of cycles access was blocked
[...]
system.switch_cpus.iew.lsq.thread0.invAddrLoads            0                       # Number of loads ignored due to an invalid address
system.switch_cpus.iew.lsq.thread0.squashedLoads     21702620                       # Number of loads squashed
system.switch_cpus.iew.lsq.thread0.ignoredResponses        71441                       # Number of memory responses ignored because the instruction is squashed
system.switch_cpus.iew.lsq.thread0.memOrderViolation        26392                       # Number of memory ordering violations
system.switch_cpus.iew.lsq.thread0.squashedStores      8425865                       # Number of stores squashed
system.switch_cpus.iew.lsq.thread0.invAddrSwpfs            0                       # Number of software prefetches ignored due to an invalid address
system.switch_cpus.iew.lsq.thread0.blockedLoads            0                       # Number of blocked loads due to partial load-store forwarding
system.switch_cpus.iew.lsq.thread0.rescheduledLoads       109445                       # Number of loads that were rescheduled
system.switch_cpus.iew.lsq.thread0.cacheBlocked       787590                       # Number of times an access to memory failed due to the cache being blocked
system.switch_cpus.iew.iewIdleCycles                0                       # Number of cycles IEW is idle
system.switch_cpus.iew.iewSquashCycles        4669456                       # Number of cycles IEW is squashing
system.switch_cpus.iew.iewBlockCycles         7533319                       # Number of cycles IEW is blocking
system.switch_cpus.iew.iewUnblockCycles      16263043                       # Number of cycles IEW is unblocking
system.switch_cpus.iew.iewDispatchedInsts   1131434085                       # Number of instructions dispatched to IQ
system.switch_cpus.iew.iewDispSquashedInsts            0                       # Number of squashed instructions skipped by dispatch
system.switch_cpus.iew.iewDispLoadInsts     313393281                       # Number of dispatched load instructions
system.switch_cpus.iew.iewDispStoreInsts    149931259                       # Number of dispatched store instructions
system.switch_cpus.iew.iewDispNonSpecInsts            0                       # Number of dispatched non-speculative instructions
system.switch_cpus.iew.iewIQFullEvents          11066                       # Number of times the IQ has become full, causing a stall
system.switch_cpus.iew.iewLSQFullEvents      16238114                       # Number of times the LSQ has become full, causing a stall
system.switch_cpus.iew.memOrderViolationEvents        26392                       # Number of memory order violations
system.switch_cpus.iew.predictedTakenIncorrect      2564457                       # Number of branches that were predicted taken incorrectly
system.switch_cpus.iew.predictedNotTakenIncorrect      2307789                       # Number of branches that were predicted not taken incorrectly
system.switch_cpus.iew.branchMispredicts      4872246                       # Number of branch mispredicts detected at execute
system.switch_cpus.iew.iewExecutedInsts    1097511472                       # Number of executed instructions
system.switch_cpus.iew.iewExecLoadInsts     305702266                       # Number of load instructions executed
system.switch_cpus.iew.iewExecSquashedInsts      8181212                       # Number of squashed instructions skipped in execute
system.switch_cpus.iew.exec_swp                     0                       # number of swp insts executed
system.switch_cpus.iew.exec_nop                    19                       # number of nop insts executed
system.switch_cpus.iew.exec_refs            450207346                       # number of memory reference insts executed
system.switch_cpus.iew.exec_branches        137249985                       # Number of branches executed
system.switch_cpus.iew.exec_stores          144505080                       # Number of stores executed
system.switch_cpus.iew.exec_rate             1.383717                       # Inst execution rate
system.switch_cpus.iew.wb_sent             1093636479                       # cumulative count of insts sent to commit
system.switch_cpus.iew.wb_count            1093201784                       # cumulative count of insts written-back
system.switch_cpus.iew.wb_producers         648126621                       # num instructions producing a value
system.switch_cpus.iew.wb_consumers         992483037                       # num instructions consuming a value
system.switch_cpus.iew.wb_rate               1.378283                       # insts written-back per cycle
system.switch_cpus.iew.wb_fanout             0.653035                       # average fanout of values written-back
system.switch_cpus.commit.commitSquashedInsts     66326718                       # The number of squashed insts skipped by commit
system.switch_cpus.commit.branchMispredicts      4645009                       # The number of times a branch was mispredicted
system.switch_cpus.commit.committed_per_cycle::samples    782510950                       # Number of insts commited each cycle
system.switch_cpus.commit.committed_per_cycle::mean     1.351705                       # Number of insts commited each cycle
system.switch_cpus.commit.committed_per_cycle::stdev     1.848350                       # Number of insts commited each cycle
system.switch_cpus.commit.committed_per_cycle::underflows            0      0.00%      0.00% # Number of insts commited each cycle
system.switch_cpus.commit.committed_per_cycle::0    358176723     45.77%     45.77% # Number of insts commited each cycle
system.switch_cpus.commit.committed_per_cycle::1    185711975     23.73%     69.51% # Number of insts commited each cycle
system.switch_cpus.commit.committed_per_cycle::2     74707442      9.55%     79.05% # Number of insts commited each cycle
system.switch_cpus.commit.committed_per_cycle::3     66147330      8.45%     87.51% # Number of insts commited each cycle
system.switch_cpus.commit.committed_per_cycle::4     42428608      5.42%     92.93% # Number of insts commited each cycle
system.switch_cpus.commit.committed_per_cycle::5     15300823      1.96%     94.88% # Number of insts commited each cycle
system.switch_cpus.commit.committed_per_cycle::6     17466357      2.23%     97.12% # Number of insts commited each cycle
system.switch_cpus.commit.committed_per_cycle::7      7434810      0.95%     98.07% # Number of insts commited each cycle
system.switch_cpus.commit.committed_per_cycle::8     15136882      1.93%    100.00% # Number of insts commited each cycle
system.switch_cpus.commit.committed_per_cycle::overflows            0      0.00%    100.00% # Number of insts commited each cycle
system.switch_cpus.commit.committed_per_cycle::min_value            0                       # Number of insts commited each cycle
system.switch_cpus.commit.committed_per_cycle::max_value            8                       # Number of insts commited each cycle
system.switch_cpus.commit.committed_per_cycle::total    782510950                       # Number of insts commited each cycle
system.switch_cpus.commit.committedInsts   1000000000                       # Number of instructions committed
system.switch_cpus.commit.committedOps     1057724264                       # Number of ops (including micro ops) committed
system.switch_cpus.commit.swp_count                 0                       # Number of s/w prefetches committed
system.switch_cpus.commit.refs              433196039                       # Number of memory references committed
system.switch_cpus.commit.loads             291690649                       # Number of loads committed
system.switch_cpus.commit.membars                   0                       # Number of memory barriers committed
system.switch_cpus.commit.branches          133341156                       # Number of branches committed
system.switch_cpus.commit.vec_insts                 0                       # Number of committed Vector instructions.
system.switch_cpus.commit.fp_insts                 15                       # Number of committed floating point instructions.
system.switch_cpus.commit.int_insts         914703447                       # Number of committed integer instructions.
system.switch_cpus.commit.function_calls       543239                       # Number of function calls committed.
system.switch_cpus.commit.op_class_0::No_OpClass            0      0.00%      0.00% # Class of committed instruction
system.switch_cpus.commit.op_class_0::IntAlu    624528179     59.04%     59.04% # Class of committed instruction
system.switch_cpus.commit.op_class_0::IntMult           28      0.00%     59.04% # Class of committed instruction
system.switch_cpus.commit.op_class_0::IntDiv           18      0.00%     59.04% # Class of committed instruction
system.switch_cpus.commit.op_class_0::FloatAdd            0      0.00%     59.04% # Class of committed instruction
system.switch_cpus.commit.op_class_0::FloatCmp            0      0.00%     59.04% # Class of committed instruction
system.switch_cpus.commit.op_class_0::FloatCvt            0      0.00%     59.04% # Class of committed instruction
system.switch_cpus.commit.op_class_0::FloatMult            0      0.00%     59.04% # Class of committed instruction
system.switch_cpus.commit.op_class_0::FloatMultAcc            0      0.00%     59.04% # Class of committed instruction
system.switch_cpus.commit.op_class_0::FloatDiv            0      0.00%     59.04% # Class of committed instruction
system.switch_cpus.commit.op_class_0::FloatMisc            0      0.00%     59.04% # Class of committed instruction
system.switch_cpus.commit.op_class_0::FloatSqrt            0      0.00%     59.04% # Class of committed instruction
system.switch_cpus.commit.op_class_0::SimdAdd            0      0.00%     59.04% # Class of committed instruction
system.switch_cpus.commit.op_class_0::SimdAddAcc            0      0.00%     59.04% # Class of committed instruction
system.switch_cpus.commit.op_class_0::SimdAlu            0      0.00%     59.04% # Class of committed instruction
system.switch_cpus.commit.op_class_0::SimdCmp            0      0.00%     59.04% # Class of committed instruction
system.switch_cpus.commit.op_class_0::SimdCvt            0      0.00%     59.04% # Class of committed instruction
system.switch_cpus.commit.op_class_0::SimdMisc            0      0.00%     59.04% # Class of committed instruction
system.switch_cpus.commit.op_class_0::SimdMult            0      0.00%     59.04% # Class of committed instruction
system.switch_cpus.commit.op_class_0::SimdMultAcc            0      0.00%     59.04% # Class of committed instruction
system.switch_cpus.commit.op_class_0::SimdShift            0      0.00%     59.04% # Class of committed instruction
system.switch_cpus.commit.op_class_0::SimdShiftAcc            0      0.00%     59.04% # Class of committed instruction
system.switch_cpus.commit.op_class_0::SimdSqrt            0      0.00%     59.04% # Class of committed instruction
system.switch_cpus.commit.op_class_0::SimdFloatAdd            0      0.00%     59.04% # Class of committed instruction
system.switch_cpus.commit.op_class_0::SimdFloatAlu            0      0.00%     59.04% # Class of committed instruction
system.switch_cpus.commit.op_class_0::SimdFloatCmp            0      0.00%     59.04% # Class of committed instruction
system.switch_cpus.commit.op_class_0::SimdFloatCvt            0      0.00%     59.04% # Class of committed instruction
system.switch_cpus.commit.op_class_0::SimdFloatDiv            0      0.00%     59.04% # Class of committed instruction
system.switch_cpus.commit.op_class_0::SimdFloatMisc            0      0.00%     59.04% # Class of committed instruction
system.switch_cpus.commit.op_class_0::SimdFloatMult            0      0.00%     59.04% # Class of committed instruction
system.switch_cpus.commit.op_class_0::SimdFloatMultAcc            0      0.00%     59.04% # Class of committed instruction
system.switch_cpus.commit.op_class_0::SimdFloatSqrt            0      0.00%     59.04% # Class of committed instruction
system.switch_cpus.commit.op_class_0::MemRead    291690640     27.58%     86.62% # Class of committed instruction
system.switch_cpus.commit.op_class_0::MemWrite    141505384     13.38%    100.00% # Class of committed instruction
system.switch_cpus.commit.op_class_0::FloatMemRead            9      0.00%    100.00% # Class of committed instruction
system.switch_cpus.commit.op_class_0::FloatMemWrite            6      0.00%    100.00% # Class of committed instruction
system.switch_cpus.commit.op_class_0::IprAccess            0      0.00%    100.00% # Class of committed instruction
system.switch_cpus.commit.op_class_0::InstPrefetch            0      0.00%    100.00% # Class of committed instruction
system.switch_cpus.commit.op_class_0::total   1057724264                       # Class of committed instruction
system.switch_cpus.commit.bw_lim_events      15136882                       # number cycles where commit BW limit reached
system.switch_cpus.rob.rob_reads           1891425050                       # The number of ROB reads
system.switch_cpus.rob.rob_writes          2258749404                       # The number of ROB writes
system.switch_cpus.timesIdled                      88                       # Number of times that the entire CPU went into an idle state and unscheduled itself
system.switch_cpus.idleCycles                   14553                       # Total number of cycles that the CPU has spent unscheduled due to idling
system.switch_cpus.committedInsts          1000000000                       # Number of Instructions Simulated
system.switch_cpus.committedOps            1057724264                       # Number of Ops (including micro ops) Simulated
system.switch_cpus.cpi                       0.793162                       # CPI: Cycles Per Instruction
system.switch_cpus.cpi_total                 0.793162                       # CPI: Total CPI of All Threads
system.switch_cpus.ipc                       1.260777                       # IPC: Instructions Per Cycle
system.switch_cpus.ipc_total                 1.260777                       # IPC: Total IPC of All Threads
system.switch_cpus.int_regfile_reads       1392036619                       # number of integer regfile reads
system.switch_cpus.int_regfile_writes       675800316                       # number of integer regfile writes
system.switch_cpus.fp_regfile_reads                 6                       # number of floating regfile reads
system.switch_cpus.fp_regfile_writes               22                       # number of floating regfile writes
system.switch_cpus.cc_regfile_reads        4179466314                       # number of cc regfile reads
system.switch_cpus.cc_regfile_writes        729087814                       # number of cc regfile writes
system.switch_cpus.misc_regfile_reads       442661009                       # number of misc regfile reads
system.tol2bus.snoop_filter.tot_requests     12879427                       # Total number of requests made to the snoop filter.
system.tol2bus.snoop_filter.hit_single_requests      6439711                       # Number of requests hitting in the snoop filter with a single holder of the requested data.
system.tol2bus.snoop_filter.hit_multi_requests         2062                       # Number of requests hitting in the snoop filter with multiple (>1) holders of the requested data.
system.tol2bus.snoop_filter.tot_snoops            165                       # Total number of snoops made to the snoop filter.
system.tol2bus.snoop_filter.hit_single_snoops          165                       # Number of snoops hitting in the snoop filter with a single holder of the requested data.
system.tol2bus.snoop_filter.hit_multi_snoops            0                       # Number of snoops hitting in the snoop filter with multiple (>1) holders of the requested data.
system.tol2bus.pwrStateResidencyTicks::UNDEFINED 1009805107000                       # Cumulative time (in ticks) in various power states
system.tol2bus.trans_dist::ReadResp           4646468                       # Transaction distribution
system.tol2bus.trans_dist::WritebackDirty      4134987                       # Transaction distribution
system.tol2bus.trans_dist::WritebackClean          106                       # Transaction distribution
system.tol2bus.trans_dist::CleanEvict         2940983                       # Transaction distribution
system.tol2bus.trans_dist::ReadExReq          1793247                       # Transaction distribution
system.tol2bus.trans_dist::ReadExResp         1793247                       # Transaction distribution
system.tol2bus.trans_dist::ReadCleanReq           109                       # Transaction distribution
system.tol2bus.trans_dist::ReadSharedReq      4646359                       # Transaction distribution
system.tol2bus.pkt_count_system.cpu.icache.mem_side::system.l2.cpu_side          324                       # Packet count per connected master and slave (bytes)
system.tol2bus.pkt_count_system.cpu.dcache.mem_side::system.l2.cpu_side     19318818                       # Packet count per connected master and slave (bytes)
system.tol2bus.pkt_count::total              19319142                       # Packet count per connected master and slave (bytes)
system.tol2bus.pkt_size_system.cpu.icache.mem_side::system.l2.cpu_side        13760                       # Cumulative packet size per connected master and slave (bytes)
system.tol2bus.pkt_size_system.cpu.dcache.mem_side::system.l2.cpu_side    647005696                       # Cumulative packet size per connected master and slave (bytes)
system.tol2bus.pkt_size::total              647019456                       # Cumulative packet size per connected master and slave (bytes)
system.tol2bus.snoops                          636364                       # Total snoops (count)
system.tol2bus.snoopTraffic                  29768256                       # Total snoop traffic (bytes)
system.tol2bus.snoop_fanout::samples          7076079                       # Request fanout histogram
system.tol2bus.snoop_fanout::mean            0.000315                       # Request fanout histogram
system.tol2bus.snoop_fanout::stdev           0.017734                       # Request fanout histogram
system.tol2bus.snoop_fanout::underflows             0      0.00%      0.00% # Request fanout histogram
system.tol2bus.snoop_fanout::0                7073853     99.97%     99.97% # Request fanout histogram
system.tol2bus.snoop_fanout::1                   2226      0.03%    100.00% # Request fanout histogram
system.tol2bus.snoop_fanout::2                      0      0.00%    100.00% # Request fanout histogram
system.tol2bus.snoop_fanout::overflows              0      0.00%    100.00% # Request fanout histogram
system.tol2bus.snoop_fanout::min_value              0                       # Request fanout histogram
system.tol2bus.snoop_fanout::max_value              1                       # Request fanout histogram
system.tol2bus.snoop_fanout::total            7076079                       # Request fanout histogram
system.tol2bus.reqLayer0.occupancy        10109677500                       # Layer occupancy (ticks)
system.tol2bus.reqLayer0.utilization              2.5                       # Layer utilization (%)
system.tol2bus.respLayer0.occupancy            163999                       # Layer occupancy (ticks)
system.tol2bus.respLayer0.utilization             0.0                       # Layer utilization (%)
system.tol2bus.respLayer1.occupancy        9659409000                       # Layer occupancy (ticks)
system.tol2bus.respLayer1.utilization             2.4                       # Layer utilization (%)

---------- End Simulation Statistics   ----------
