gem5 Simulator System.  http://gem5.org
gem5 is copyrighted software; use the --copyright option for details.

gem5 compiled Dec  8 2017 12:42:00
gem5 started Dec  8 2017 15:23:50
gem5 executing on iris-38, pid 392732
command line: /research/rraju2/ece752/gem5/build/ARM/gem5.opt /research/rraju2/ece752/gem5/configs/example/se.py --cpu-type=ex5_big --fast-forward=1000000000 --caches --l2cache --mem-size=2GB --cpu-clock=2GHz --sys-clock=2GHz --maxinsts=1000000000 --cmd=410.bwaves --output=410.bwaves.stdout --errout=410.bwaves.stderr

info: Standard input is not a terminal, disabling listeners.
Global frequency set at 1000000000000 ticks per second
Switch at instruction count:1000000000
Switched CPUS @ tick 669989903000
switching cpus
**** REAL SIMULATION ****
Exiting @ tick 1465156742000 because a thread reached the max instruction count
