
---------- Begin Simulation Statistics ----------
sim_seconds                                  0.363850                       # Number of seconds simulated
sim_ticks                                363849794000                       # Number of ticks simulated
final_tick                               995442013500                       # Number of ticks from beginning of simulation (restored from checkpoints and never reset)
sim_freq                                 1000000000000                       # Frequency of simulated ticks
host_inst_rate                                 175372                       # Simulator instruction rate (inst/s)
host_op_rate                                   181235                       # Simulator op (including micro ops) rate (op/s)
host_tick_rate                               31904505                       # Simulator tick rate (ticks/s)
host_mem_usage                                2234856                       # Number of bytes of host memory used
host_seconds                                 11404.34                       # Real time elapsed on the host
sim_insts                                  2000000005                       # Number of instructions simulated
sim_ops                                    2066860880                       # Number of ops (including micro ops) simulated
system.voltage_domain.voltage                       1                       # Voltage in Volts
system.clk_domain.clock                           500                       # Clock period in ticks
system.mem_ctrls.pwrStateResidencyTicks::UNDEFINED 995442013500                       # Cumulative time (in ticks) in various power states
system.mem_ctrls.bytes_read::switch_cpus.inst         1024                       # Number of bytes read from this memory
system.mem_ctrls.bytes_read::total               1024                       # Number of bytes read from this memory
system.mem_ctrls.bytes_inst_read::switch_cpus.inst         1024                       # Number of instructions bytes read from this memory
system.mem_ctrls.bytes_inst_read::total          1024                       # Number of instructions bytes read from this memory
system.mem_ctrls.num_reads::switch_cpus.inst           16                       # Number of read requests responded to by this memory
system.mem_ctrls.num_reads::total                  16                       # Number of read requests responded to by this memory
system.mem_ctrls.bw_read::switch_cpus.inst         2814                       # Total read bandwidth from this memory (bytes/s)
system.mem_ctrls.bw_read::total                  2814                       # Total read bandwidth from this memory (bytes/s)
system.mem_ctrls.bw_inst_read::switch_cpus.inst         2814                       # Instruction read bandwidth from this memory (bytes/s)
system.mem_ctrls.bw_inst_read::total             2814                       # Instruction read bandwidth from this memory (bytes/s)
system.mem_ctrls.bw_total::switch_cpus.inst         2814                       # Total bandwidth to/from this memory (bytes/s)
system.mem_ctrls.bw_total::total                 2814                       # Total bandwidth to/from this memory (bytes/s)
system.mem_ctrls.readReqs                          16                       # Number of read requests accepted
system.mem_ctrls.writeReqs                          0                       # Number of write requests accepted
system.mem_ctrls.readBursts                        16                       # Number of DRAM read bursts, including those serviced by the write queue
system.mem_ctrls.writeBursts                        0                       # Number of DRAM write bursts, including those merged in the write queue
system.mem_ctrls.bytesReadDRAM                   1024                       # Total number of bytes read from DRAM
system.mem_ctrls.bytesReadWrQ                       0                       # Total number of bytes read from write queue
system.mem_ctrls.bytesWritten                       0                       # Total number of bytes written to DRAM
system.mem_ctrls.bytesReadSys                    1024                       # Total read bytes from the system interface side
system.mem_ctrls.bytesWrittenSys                    0                       # Total written bytes from the system interface side
system.mem_ctrls.servicedByWrQ                      0                       # Number of DRAM read bursts serviced by the write queue
system.mem_ctrls.mergedWrBursts                     0                       # Number of DRAM write bursts merged with an existing one
system.mem_ctrls.neitherReadNorWriteReqs            0                       # Number of requests that are neither read nor write
system.mem_ctrls.perBankRdBursts::0                 1                       # Per bank write bursts
system.mem_ctrls.perBankRdBursts::1                 6                       # Per bank write bursts
system.mem_ctrls.perBankRdBursts::2                 8                       # Per bank write bursts
system.mem_ctrls.perBankRdBursts::3                 1                       # Per bank write bursts
system.mem_ctrls.perBankRdBursts::4                 0                       # Per bank write bursts
system.mem_ctrls.perBankRdBursts::5                 0                       # Per bank write bursts
system.mem_ctrls.perBankRdBursts::6                 0                       # Per bank write bursts
system.mem_ctrls.perBankRdBursts::7                 0                       # Per bank write bursts
system.mem_ctrls.perBankRdBursts::8                 0                       # Per bank write bursts
system.mem_ctrls.perBankRdBursts::9                 0                       # Per bank write bursts
system.mem_ctrls.perBankRdBursts::10                0                       # Per bank write bursts
system.mem_ctrls.perBankRdBursts::11                0                       # Per bank write bursts
system.mem_ctrls.perBankRdBursts::12                0                       # Per bank write bursts
system.mem_ctrls.perBankRdBursts::13                0                       # Per bank write bursts
system.mem_ctrls.perBankRdBursts::14                0                       # Per bank write bursts
system.mem_ctrls.perBankRdBursts::15                0                       # Per bank write bursts
system.mem_ctrls.perBankWrBursts::0                 0                       # Per bank write bursts
system.mem_ctrls.perBankWrBursts::1                 0                       # Per bank write bursts
system.mem_ctrls.perBankWrBursts::2                 0                       # Per bank write bursts
system.mem_ctrls.perBankWrBursts::3                 0                       # Per bank write bursts
system.mem_ctrls.perBankWrBursts::4                 0                       # Per bank write bursts
system.mem_ctrls.perBankWrBursts::5                 0                       # Per bank write bursts
system.mem_ctrls.perBankWrBursts::6                 0                       # Per bank write bursts
system.mem_ctrls.perBankWrBursts::7                 0                       # Per bank write bursts
system.mem_ctrls.perBankWrBursts::8                 0                       # Per bank write bursts
system.mem_ctrls.perBankWrBursts::9                 0                       # Per bank write bursts
system.mem_ctrls.perBankWrBursts::10                0                       # Per bank write bursts
system.mem_ctrls.perBankWrBursts::11                0                       # Per bank write bursts
system.mem_ctrls.perBankWrBursts::12                0                       # Per bank write bursts
system.mem_ctrls.perBankWrBursts::13                0                       # Per bank write bursts
system.mem_ctrls.perBankWrBursts::14                0                       # Per bank write bursts
system.mem_ctrls.perBankWrBursts::15                0                       # Per bank write bursts
system.mem_ctrls.numRdRetry                         0                       # Number of times read queue was full causing retry
system.mem_ctrls.numWrRetry                         0                       # Number of times write queue was full causing retry
system.mem_ctrls.totGap                  240858754000                       # Total gap between requests
system.mem_ctrls.readPktSize::0                     0                       # Read request sizes (log2)
system.mem_ctrls.readPktSize::1                     0                       # Read request sizes (log2)
system.mem_ctrls.readPktSize::2                     0                       # Read request sizes (log2)
system.mem_ctrls.readPktSize::3                     0                       # Read request sizes (log2)
system.mem_ctrls.readPktSize::4                     0                       # Read request sizes (log2)
system.mem_ctrls.readPktSize::5                     0                       # Read request sizes (log2)
system.mem_ctrls.readPktSize::6                    16                       # Read request sizes (log2)
system.mem_ctrls.writePktSize::0                    0                       # Write request sizes (log2)
system.mem_ctrls.writePktSize::1                    0                       # Write request sizes (log2)
system.mem_ctrls.writePktSize::2                    0                       # Write request sizes (log2)
system.mem_ctrls.writePktSize::3                    0                       # Write request sizes (log2)
system.mem_ctrls.writePktSize::4                    0                       # Write request sizes (log2)
system.mem_ctrls.writePktSize::5                    0                       # Write request sizes (log2)
system.mem_ctrls.writePktSize::6                    0                       # Write request sizes (log2)
system.mem_ctrls.rdQLenPdf::0                      14                       # What read queue length does an incoming req see
system.mem_ctrls.rdQLenPdf::1                       1                       # What read queue length does an incoming req see
system.mem_ctrls.rdQLenPdf::2                       1                       # What read queue length does an incoming req see
system.mem_ctrls.rdQLenPdf::3                       0                       # What read queue length does an incoming req see
system.mem_ctrls.rdQLenPdf::4                       0                       # What read queue length does an incoming req see
system.mem_ctrls.rdQLenPdf::5                       0                       # What read queue length does an incoming req see
system.mem_ctrls.rdQLenPdf::6                       0                       # What read queue length does an incoming req see
system.mem_ctrls.rdQLenPdf::7                       0                       # What read queue length does an incoming req see
system.mem_ctrls.rdQLenPdf::8                       0                       # What read queue length does an incoming req see
system.mem_ctrls.rdQLenPdf::9                       0                       # What read queue length does an incoming req see
system.mem_ctrls.rdQLenPdf::10                      0                       # What read queue length does an incoming req see
system.mem_ctrls.rdQLenPdf::11                      0                       # What read queue length does an incoming req see
system.mem_ctrls.rdQLenPdf::12                      0                       # What read queue length does an incoming req see
system.mem_ctrls.rdQLenPdf::13                      0                       # What read queue length does an incoming req see
system.mem_ctrls.rdQLenPdf::14                      0                       # What read queue length does an incoming req see
system.mem_ctrls.rdQLenPdf::15                      0                       # What read queue length does an incoming req see
system.mem_ctrls.rdQLenPdf::16                      0                       # What read queue length does an incoming req see
system.mem_ctrls.rdQLenPdf::17                      0                       # What read queue length does an incoming req see
system.mem_ctrls.rdQLenPdf::18                      0                       # What read queue length does an incoming req see
system.mem_ctrls.rdQLenPdf::19                      0                       # What read queue length does an incoming req see
system.mem_ctrls.rdQLenPdf::20                      0                       # What read queue length does an incoming req see
system.mem_ctrls.rdQLenPdf::21                      0                       # What read queue length does an incoming req see
system.mem_ctrls.rdQLenPdf::22                      0                       # What read queue length does an incoming req see
system.mem_ctrls.rdQLenPdf::23                      0                       # What read queue length does an incoming req see
system.mem_ctrls.rdQLenPdf::24                      0                       # What read queue length does an incoming req see
system.mem_ctrls.rdQLenPdf::25                      0                       # What read queue length does an incoming req see
system.mem_ctrls.rdQLenPdf::26                      0                       # What read queue length does an incoming req see
system.mem_ctrls.rdQLenPdf::27                      0                       # What read queue length does an incoming req see
system.mem_ctrls.rdQLenPdf::28                      0                       # What read queue length does an incoming req see
system.mem_ctrls.rdQLenPdf::29                      0                       # What read queue length does an incoming req see
system.mem_ctrls.rdQLenPdf::30                      0                       # What read queue length does an incoming req see
system.mem_ctrls.rdQLenPdf::31                      0                       # What read queue length does an incoming req see
system.mem_ctrls.wrQLenPdf::0                       0                       # What write queue length does an incoming req see
system.mem_ctrls.wrQLenPdf::1                       0                       # What write queue length does an incoming req see
system.mem_ctrls.wrQLenPdf::2                       0                       # What write queue length does an incoming req see
system.mem_ctrls.wrQLenPdf::3                       0                       # What write queue length does an incoming req see
system.mem_ctrls.wrQLenPdf::4                       0                       # What write queue length does an incoming req see
system.mem_ctrls.wrQLenPdf::5                       0                       # What write queue length does an incoming req see
system.mem_ctrls.wrQLenPdf::6                       0                       # What write queue length does an incoming req see
system.mem_ctrls.wrQLenPdf::7                       0                       # What write queue length does an incoming req see
system.mem_ctrls.wrQLenPdf::8                       0                       # What write queue length does an incoming req see
system.mem_ctrls.wrQLenPdf::9                       0                       # What write queue length does an incoming req see
system.mem_ctrls.wrQLenPdf::10                      0                       # What write queue length does an incoming req see
system.mem_ctrls.wrQLenPdf::11                      0                       # What write queue length does an incoming req see
system.mem_ctrls.wrQLenPdf::12                      0                       # What write queue length does an incoming req see
system.mem_ctrls.wrQLenPdf::13                      0                       # What write queue length does an incoming req see
system.mem_ctrls.wrQLenPdf::14                      0                       # What write queue length does an incoming req see
system.mem_ctrls.wrQLenPdf::15                      0                       # What write queue length does an incoming req see
system.mem_ctrls.wrQLenPdf::16                      0                       # What write queue length does an incoming req see
system.mem_ctrls.wrQLenPdf::17                      0                       # What write queue length does an incoming req see
system.mem_ctrls.wrQLenPdf::18                      0                       # What write queue length does an incoming req see
system.mem_ctrls.wrQLenPdf::19                      0                       # What write queue length does an incoming req see
system.mem_ctrls.wrQLenPdf::20                      0                       # What write queue length does an incoming req see
system.mem_ctrls.wrQLenPdf::21                      0                       # What write queue length does an incoming req see
system.mem_ctrls.wrQLenPdf::22                      0                       # What write queue length does an incoming req see
system.mem_ctrls.wrQLenPdf::23                      0                       # What write queue length does an incoming req see
system.mem_ctrls.wrQLenPdf::24                      0                       # What write queue length does an incoming req see
system.mem_ctrls.wrQLenPdf::25                      0                       # What write queue length does an incoming req see
system.mem_ctrls.wrQLenPdf::26                      0                       # What write queue length does an incoming req see
system.mem_ctrls.wrQLenPdf::27                      0                       # What write queue length does an incoming req see
system.mem_ctrls.wrQLenPdf::28                      0                       # What write queue length does an incoming req see
system.mem_ctrls.wrQLenPdf::29                      0                       # What write queue length does an incoming req see
system.mem_ctrls.wrQLenPdf::30                      0                       # What write queue length does an incoming req see
system.mem_ctrls.wrQLenPdf::31                      0                       # What write queue length does an incoming req see
system.mem_ctrls.wrQLenPdf::32                      0                       # What write queue length does an incoming req see
system.mem_ctrls.wrQLenPdf::33                      0                       # What write queue length does an incoming req see
system.mem_ctrls.wrQLenPdf::34                      0                       # What write queue length does an incoming req see
system.mem_ctrls.wrQLenPdf::35                      0                       # What write queue length does an incoming req see
system.mem_ctrls.wrQLenPdf::36                      0                       # What write queue length does an incoming req see
system.mem_ctrls.wrQLenPdf::37                      0                       # What write queue length does an incoming req see
system.mem_ctrls.wrQLenPdf::38                      0                       # What write queue length does an incoming req see
system.mem_ctrls.wrQLenPdf::39                      0                       # What write queue length does an incoming req see
system.mem_ctrls.wrQLenPdf::40                      0                       # What write queue length does an incoming req see
system.mem_ctrls.wrQLenPdf::41                      0                       # What write queue length does an incoming req see
system.mem_ctrls.wrQLenPdf::42                      0                       # What write queue length does an incoming req see
system.mem_ctrls.wrQLenPdf::43                      0                       # What write queue length does an incoming req see
system.mem_ctrls.wrQLenPdf::44                      0                       # What write queue length does an incoming req see
system.mem_ctrls.wrQLenPdf::45                      0                       # What write queue length does an incoming req see
system.mem_ctrls.wrQLenPdf::46                      0                       # What write queue length does an incoming req see
system.mem_ctrls.wrQLenPdf::47                      0                       # What write queue length does an incoming req see
system.mem_ctrls.wrQLenPdf::48                      0                       # What write queue length does an incoming req see
system.mem_ctrls.wrQLenPdf::49                      0                       # What write queue length does an incoming req see
system.mem_ctrls.wrQLenPdf::50                      0                       # What write queue length does an incoming req see
system.mem_ctrls.wrQLenPdf::51                      0                       # What write queue length does an incoming req see
system.mem_ctrls.wrQLenPdf::52                      0                       # What write queue length does an incoming req see
system.mem_ctrls.wrQLenPdf::53                      0                       # What write queue length does an incoming req see
system.mem_ctrls.wrQLenPdf::54                      0                       # What write queue length does an incoming req see
system.mem_ctrls.wrQLenPdf::55                      0                       # What write queue length does an incoming req see
system.mem_ctrls.wrQLenPdf::56                      0                       # What write queue length does an incoming req see
system.mem_ctrls.wrQLenPdf::57                      0                       # What write queue length does an incoming req see
system.mem_ctrls.wrQLenPdf::58                      0                       # What write queue length does an incoming req see
system.mem_ctrls.wrQLenPdf::59                      0                       # What write queue length does an incoming req see
system.mem_ctrls.wrQLenPdf::60                      0                       # What write queue length does an incoming req see
system.mem_ctrls.wrQLenPdf::61                      0                       # What write queue length does an incoming req see
system.mem_ctrls.wrQLenPdf::62                      0                       # What write queue length does an incoming req see
system.mem_ctrls.wrQLenPdf::63                      0                       # What write queue length does an incoming req see
system.mem_ctrls.bytesPerActivate::samples           15                       # Bytes accessed per row activation
system.mem_ctrls.bytesPerActivate::mean     68.266667                       # Bytes accessed per row activation
system.mem_ctrls.bytesPerActivate::gmean    67.026824                       # Bytes accessed per row activation
system.mem_ctrls.bytesPerActivate::stdev    16.524729                       # Bytes accessed per row activation
system.mem_ctrls.bytesPerActivate::64-79           14     93.33%     93.33% # Bytes accessed per row activation
system.mem_ctrls.bytesPerActivate::128-143            1      6.67%    100.00% # Bytes accessed per row activation
system.mem_ctrls.bytesPerActivate::total           15                       # Bytes accessed per row activation
system.mem_ctrls.totQLat                      8596500                       # Total ticks spent queuing
system.mem_ctrls.totMemAccLat                 8896500                       # Total ticks spent from burst creation until serviced by the DRAM
system.mem_ctrls.totBusLat                      80000                       # Total ticks spent in databus transfers
system.mem_ctrls.avgQLat                    537281.25                       # Average queueing delay per DRAM burst
system.mem_ctrls.avgBusLat                    5000.00                       # Average bus latency per DRAM burst
system.mem_ctrls.avgMemAccLat               556031.25                       # Average memory access latency per DRAM burst
system.mem_ctrls.avgRdBW                         0.00                       # Average DRAM read bandwidth in MiByte/s
system.mem_ctrls.avgWrBW                         0.00                       # Average achieved write bandwidth in MiByte/s
system.mem_ctrls.avgRdBWSys                      0.00                       # Average system read bandwidth in MiByte/s
system.mem_ctrls.avgWrBWSys                      0.00                       # Average system write bandwidth in MiByte/s
system.mem_ctrls.peakBW                      12800.00                       # Theoretical peak bandwidth in MiByte/s
system.mem_ctrls.busUtil                         0.00                       # Data bus utilization in percentage
system.mem_ctrls.busUtilRead                     0.00                       # Data bus utilization in percentage for reads
system.mem_ctrls.busUtilWrite                    0.00                       # Data bus utilization in percentage for writes
system.mem_ctrls.avgRdQLen                       1.00                       # Average read queue length when enqueuing
system.mem_ctrls.avgWrQLen                       0.00                       # Average write queue length when enqueuing
system.mem_ctrls.readRowHits                        1                       # Number of row buffer hits during reads
system.mem_ctrls.writeRowHits                       0                       # Number of row buffer hits during writes
system.mem_ctrls.readRowHitRate                  6.25                       # Row buffer hit rate for reads
system.mem_ctrls.writeRowHitRate                  nan                       # Row buffer hit rate for writes
system.mem_ctrls.avgGap                  15053672125.00                       # Average gap between requests
system.mem_ctrls.pageHitRate                     6.25                       # Row buffer hit rate, read and write combined
system.mem_ctrls_0.actEnergy                   107100                       # Energy for activate commands per rank (pJ)
system.mem_ctrls_0.preEnergy                    56925                       # Energy for precharge commands per rank (pJ)
system.mem_ctrls_0.readEnergy                  114240                       # Energy for read commands per rank (pJ)
system.mem_ctrls_0.writeEnergy                      0                       # Energy for write commands per rank (pJ)
system.mem_ctrls_0.refreshEnergy         27044160.000000                       # Energy for refresh commands per rank (pJ)
system.mem_ctrls_0.actBackEnergy              5189850                       # Energy for active background per rank (pJ)
system.mem_ctrls_0.preBackEnergy              4780800                       # Energy for precharge background per rank (pJ)
system.mem_ctrls_0.actPowerDownEnergy        47834970                       # Energy for active power-down per rank (pJ)
system.mem_ctrls_0.prePowerDownEnergy        43246560                       # Energy for precharge power-down per rank (pJ)
system.mem_ctrls_0.selfRefreshEnergy      87273756960                       # Energy for self refresh per rank (pJ)
system.mem_ctrls_0.totalEnergy            87402131565                       # Total energy per rank (pJ)
system.mem_ctrls_0.averagePower            240.214872                       # Core power per rank (mW)
system.mem_ctrls_0.totalIdleTime         240965145750                       # Total Idle time Per DRAM Rank
system.mem_ctrls_0.memoryStateTime::IDLE     11566250                       # Time in different power states
system.mem_ctrls_0.memoryStateTime::REF      11530000                       # Time in different power states
system.mem_ctrls_0.memoryStateTime::SREF 363608436500                       # Time in different power states
system.mem_ctrls_0.memoryStateTime::PRE_PDN    112617250                       # Time in different power states
system.mem_ctrls_0.memoryStateTime::ACT        742500                       # Time in different power states
system.mem_ctrls_0.memoryStateTime::ACT_PDN    104901500                       # Time in different power states
system.mem_ctrls_1.actEnergy                        0                       # Energy for activate commands per rank (pJ)
system.mem_ctrls_1.preEnergy                        0                       # Energy for precharge commands per rank (pJ)
system.mem_ctrls_1.readEnergy                       0                       # Energy for read commands per rank (pJ)
system.mem_ctrls_1.writeEnergy                      0                       # Energy for write commands per rank (pJ)
system.mem_ctrls_1.refreshEnergy         1229280.000000                       # Energy for refresh commands per rank (pJ)
system.mem_ctrls_1.actBackEnergy               224580                       # Energy for active background per rank (pJ)
system.mem_ctrls_1.preBackEnergy              3002880                       # Energy for precharge background per rank (pJ)
system.mem_ctrls_1.actPowerDownEnergy               0                       # Energy for active power-down per rank (pJ)
system.mem_ctrls_1.prePowerDownEnergy         2890080                       # Energy for precharge power-down per rank (pJ)
system.mem_ctrls_1.selfRefreshEnergy      87320149200                       # Energy for self refresh per rank (pJ)
system.mem_ctrls_1.totalEnergy            87327496020                       # Total energy per rank (pJ)
system.mem_ctrls_1.averagePower            240.009744                       # Core power per rank (mW)
system.mem_ctrls_1.totalIdleTime              7526250                       # Total Idle time Per DRAM Rank
system.mem_ctrls_1.memoryStateTime::IDLE      7786250                       # Time in different power states
system.mem_ctrls_1.memoryStateTime::REF        526000                       # Time in different power states
system.mem_ctrls_1.memoryStateTime::SREF 363833955500                       # Time in different power states
system.mem_ctrls_1.memoryStateTime::PRE_PDN      7526250                       # Time in different power states
system.mem_ctrls_1.memoryStateTime::ACT             0                       # Time in different power states
system.mem_ctrls_1.memoryStateTime::ACT_PDN            0                       # Time in different power states
system.pwrStateResidencyTicks::UNDEFINED 995442013500                       # Cumulative time (in ticks) in various power states
system.cpu_voltage_domain.voltage                   1                       # Voltage in Volts
system.cpu_clk_domain.clock                       500                       # Clock period in ticks
system.cpu.dstage2_mmu.stage2_tlb.walker.pwrStateResidencyTicks::UNDEFINED 995442013500                       # Cumulative time (in ticks) in various power states
system.cpu.dstage2_mmu.stage2_tlb.walker.walks            0                       # Table walker walks requested
system.cpu.dstage2_mmu.stage2_tlb.walker.walkRequestOrigin_Requested::Data            0                       # Table walker requests started/completed, data/inst
system.cpu.dstage2_mmu.stage2_tlb.walker.walkRequestOrigin_Requested::Inst            0                       # Table walker requests started/completed, data/inst
system.cpu.dstage2_mmu.stage2_tlb.walker.walkRequestOrigin_Requested::total            0                       # Table walker requests started/completed, data/inst
system.cpu.dstage2_mmu.stage2_tlb.walker.walkRequestOrigin_Completed::Data            0                       # Table walker requests started/completed, data/inst
system.cpu.dstage2_mmu.stage2_tlb.walker.walkRequestOrigin_Completed::Inst            0                       # Table walker requests started/completed, data/inst
system.cpu.dstage2_mmu.stage2_tlb.walker.walkRequestOrigin_Completed::total            0                       # Table walker requests started/completed, data/inst
system.cpu.dstage2_mmu.stage2_tlb.walker.walkRequestOrigin::total            0                       # Table walker requests started/completed, data/inst
system.cpu.dstage2_mmu.stage2_tlb.inst_hits            0                       # ITB inst hits
system.cpu.dstage2_mmu.stage2_tlb.inst_misses            0                       # ITB inst misses
system.cpu.dstage2_mmu.stage2_tlb.read_hits            0                       # DTB read hits
system.cpu.dstage2_mmu.stage2_tlb.read_misses            0                       # DTB read misses
system.cpu.dstage2_mmu.stage2_tlb.write_hits            0                       # DTB write hits
system.cpu.dstage2_mmu.stage2_tlb.write_misses            0                       # DTB write misses
system.cpu.dstage2_mmu.stage2_tlb.flush_tlb            0                       # Number of times complete TLB was flushed
system.cpu.dstage2_mmu.stage2_tlb.flush_tlb_mva            0                       # Number of times TLB was flushed by MVA
system.cpu.dstage2_mmu.stage2_tlb.flush_tlb_mva_asid            0                       # Number of times TLB was flushed by MVA & ASID
system.cpu.dstage2_mmu.stage2_tlb.flush_tlb_asid            0                       # Number of times TLB was flushed by ASID
system.cpu.dstage2_mmu.stage2_tlb.flush_entries            0                       # Number of entries that have been flushed from TLB
system.cpu.dstage2_mmu.stage2_tlb.align_faults            0                       # Number of TLB faults due to alignment restrictions
system.cpu.dstage2_mmu.stage2_tlb.prefetch_faults            0                       # Number of TLB faults due to prefetch
system.cpu.dstage2_mmu.stage2_tlb.domain_faults            0                       # Number of TLB faults due to domain restrictions
system.cpu.dstage2_mmu.stage2_tlb.perms_faults            0                       # Number of TLB faults due to permissions restrictions
system.cpu.dstage2_mmu.stage2_tlb.read_accesses            0                       # DTB read accesses
system.cpu.dstage2_mmu.stage2_tlb.write_accesses            0                       # DTB write accesses
system.cpu.dstage2_mmu.stage2_tlb.inst_accesses            0                       # ITB inst accesses
system.cpu.dstage2_mmu.stage2_tlb.hits              0                       # DTB hits
system.cpu.dstage2_mmu.stage2_tlb.misses            0                       # DTB misses
system.cpu.dstage2_mmu.stage2_tlb.accesses            0                       # DTB accesses
system.cpu.dtb.walker.pwrStateResidencyTicks::UNDEFINED 995442013500                       # Cumulative time (in ticks) in various power states
system.cpu.dtb.walker.walks                         0                       # Table walker walks requested
system.cpu.dtb.walker.walkRequestOrigin_Requested::Data            0                       # Table walker requests started/completed, data/inst
system.cpu.dtb.walker.walkRequestOrigin_Requested::Inst            0                       # Table walker requests started/completed, data/inst
system.cpu.dtb.walker.walkRequestOrigin_Requested::total            0                       # Table walker requests started/completed, data/inst
system.cpu.dtb.walker.walkRequestOrigin_Completed::Data            0                       # Table walker requests started/completed, data/inst
system.cpu.dtb.walker.walkRequestOrigin_Completed::Inst            0                       # Table walker requests started/completed, data/inst
system.cpu.dtb.walker.walkRequestOrigin_Completed::total            0                       # Table walker requests started/completed, data/inst
system.cpu.dtb.walker.walkRequestOrigin::total            0                       # Table walker requests started/completed, data/inst
system.cpu.dtb.inst_hits                            0                       # ITB inst hits
system.cpu.dtb.inst_misses                          0                       # ITB inst misses
system.cpu.dtb.read_hits                            0                       # DTB read hits
system.cpu.dtb.read_misses                          0                       # DTB read misses
system.cpu.dtb.write_hits                           0                       # DTB write hits
system.cpu.dtb.write_misses                         0                       # DTB write misses
system.cpu.dtb.flush_tlb                            0                       # Number of times complete TLB was flushed
system.cpu.dtb.flush_tlb_mva                        0                       # Number of times TLB was flushed by MVA
system.cpu.dtb.flush_tlb_mva_asid                   0                       # Number of times TLB was flushed by MVA & ASID
system.cpu.dtb.flush_tlb_asid                       0                       # Number of times TLB was flushed by ASID
system.cpu.dtb.flush_entries                        0                       # Number of entries that have been flushed from TLB
system.cpu.dtb.align_faults                         0                       # Number of TLB faults due to alignment restrictions
system.cpu.dtb.prefetch_faults                      0                       # Number of TLB faults due to prefetch
system.cpu.dtb.domain_faults                        0                       # Number of TLB faults due to domain restrictions
system.cpu.dtb.perms_faults                         0                       # Number of TLB faults due to permissions restrictions
system.cpu.dtb.read_accesses                        0                       # DTB read accesses
system.cpu.dtb.write_accesses                       0                       # DTB write accesses
system.cpu.dtb.inst_accesses                        0                       # ITB inst accesses
system.cpu.dtb.hits                                 0                       # DTB hits
system.cpu.dtb.misses                               0                       # DTB misses
system.cpu.dtb.accesses                             0                       # DTB accesses
system.cpu.istage2_mmu.stage2_tlb.walker.pwrStateResidencyTicks::UNDEFINED 995442013500                       # Cumulative time (in ticks) in various power states
system.cpu.istage2_mmu.stage2_tlb.walker.walks            0                       # Table walker walks requested
system.cpu.istage2_mmu.stage2_tlb.walker.walkRequestOrigin_Requested::Data            0                       # Table walker requests started/completed, data/inst
system.cpu.istage2_mmu.stage2_tlb.walker.walkRequestOrigin_Requested::Inst            0                       # Table walker requests started/completed, data/inst
system.cpu.istage2_mmu.stage2_tlb.walker.walkRequestOrigin_Requested::total            0                       # Table walker requests started/completed, data/inst
system.cpu.istage2_mmu.stage2_tlb.walker.walkRequestOrigin_Completed::Data            0                       # Table walker requests started/completed, data/inst
system.cpu.istage2_mmu.stage2_tlb.walker.walkRequestOrigin_Completed::Inst            0                       # Table walker requests started/completed, data/inst
system.cpu.istage2_mmu.stage2_tlb.walker.walkRequestOrigin_Completed::total            0                       # Table walker requests started/completed, data/inst
system.cpu.istage2_mmu.stage2_tlb.walker.walkRequestOrigin::total            0                       # Table walker requests started/completed, data/inst
system.cpu.istage2_mmu.stage2_tlb.inst_hits            0                       # ITB inst hits
system.cpu.istage2_mmu.stage2_tlb.inst_misses            0                       # ITB inst misses
system.cpu.istage2_mmu.stage2_tlb.read_hits            0                       # DTB read hits
system.cpu.istage2_mmu.stage2_tlb.read_misses            0                       # DTB read misses
system.cpu.istage2_mmu.stage2_tlb.write_hits            0                       # DTB write hits
system.cpu.istage2_mmu.stage2_tlb.write_misses            0                       # DTB write misses
system.cpu.istage2_mmu.stage2_tlb.flush_tlb            0                       # Number of times complete TLB was flushed
system.cpu.istage2_mmu.stage2_tlb.flush_tlb_mva            0                       # Number of times TLB was flushed by MVA
system.cpu.istage2_mmu.stage2_tlb.flush_tlb_mva_asid            0                       # Number of times TLB was flushed by MVA & ASID
system.cpu.istage2_mmu.stage2_tlb.flush_tlb_asid            0                       # Number of times TLB was flushed by ASID
system.cpu.istage2_mmu.stage2_tlb.flush_entries            0                       # Number of entries that have been flushed from TLB
system.cpu.istage2_mmu.stage2_tlb.align_faults            0                       # Number of TLB faults due to alignment restrictions
system.cpu.istage2_mmu.stage2_tlb.prefetch_faults            0                       # Number of TLB faults due to prefetch
system.cpu.istage2_mmu.stage2_tlb.domain_faults            0                       # Number of TLB faults due to domain restrictions
system.cpu.istage2_mmu.stage2_tlb.perms_faults            0                       # Number of TLB faults due to permissions restrictions
system.cpu.istage2_mmu.stage2_tlb.read_accesses            0                       # DTB read accesses
system.cpu.istage2_mmu.stage2_tlb.write_accesses            0                       # DTB write accesses
system.cpu.istage2_mmu.stage2_tlb.inst_accesses            0                       # ITB inst accesses
system.cpu.istage2_mmu.stage2_tlb.hits              0                       # DTB hits
system.cpu.istage2_mmu.stage2_tlb.misses            0                       # DTB misses
system.cpu.istage2_mmu.stage2_tlb.accesses            0                       # DTB accesses
system.cpu.itb.walker.pwrStateResidencyTicks::UNDEFINED 995442013500                       # Cumulative time (in ticks) in various power states
system.cpu.itb.walker.walks                         0                       # Table walker walks requested
system.cpu.itb.walker.walkRequestOrigin_Requested::Data            0                       # Table walker requests started/completed, data/inst
system.cpu.itb.walker.walkRequestOrigin_Requested::Inst            0                       # Table walker requests started/completed, data/inst
system.cpu.itb.walker.walkRequestOrigin_Requested::total            0                       # Table walker requests started/completed, data/inst
system.cpu.itb.walker.walkRequestOrigin_Completed::Data            0                       # Table walker requests started/completed, data/inst
system.cpu.itb.walker.walkRequestOrigin_Completed::Inst            0                       # Table walker requests started/completed, data/inst
system.cpu.itb.walker.walkRequestOrigin_Completed::total            0                       # Table walker requests started/completed, data/inst
system.cpu.itb.walker.walkRequestOrigin::total            0                       # Table walker requests started/completed, data/inst
system.cpu.itb.inst_hits                            0                       # ITB inst hits
system.cpu.itb.inst_misses                          0                       # ITB inst misses
system.cpu.itb.read_hits                            0                       # DTB read hits
system.cpu.itb.read_misses                          0                       # DTB read misses
system.cpu.itb.write_hits                           0                       # DTB write hits
system.cpu.itb.write_misses                         0                       # DTB write misses
system.cpu.itb.flush_tlb                            0                       # Number of times complete TLB was flushed
system.cpu.itb.flush_tlb_mva                        0                       # Number of times TLB was flushed by MVA
system.cpu.itb.flush_tlb_mva_asid                   0                       # Number of times TLB was flushed by MVA & ASID
system.cpu.itb.flush_tlb_asid                       0                       # Number of times TLB was flushed by ASID
system.cpu.itb.flush_entries                        0                       # Number of entries that have been flushed from TLB
system.cpu.itb.align_faults                         0                       # Number of TLB faults due to alignment restrictions
system.cpu.itb.prefetch_faults                      0                       # Number of TLB faults due to prefetch
system.cpu.itb.domain_faults                        0                       # Number of TLB faults due to domain restrictions
system.cpu.itb.perms_faults                         0                       # Number of TLB faults due to permissions restrictions
system.cpu.itb.read_accesses                        0                       # DTB read accesses
system.cpu.itb.write_accesses                       0                       # DTB write accesses
system.cpu.itb.inst_accesses                        0                       # ITB inst accesses
system.cpu.itb.hits                                 0                       # DTB hits
system.cpu.itb.misses                               0                       # DTB misses
system.cpu.itb.accesses                             0                       # DTB accesses
system.cpu.workload.numSyscalls                     0                       # Number of system calls
system.cpu.pwrStateResidencyTicks::ON    995442013500                       # Cumulative time (in ticks) in various power states
system.cpu.numCycles                                0                       # number of cpu cycles simulated
system.cpu.numWorkItemsStarted                      0                       # number of work items this cpu started
system.cpu.numWorkItemsCompleted                    0                       # number of work items this cpu completed
system.cpu.committedInsts                           0                       # Number of instructions committed
system.cpu.committedOps                             0                       # Number of ops (including micro ops) committed
system.cpu.num_int_alu_accesses                     0                       # Number of integer alu accesses
system.cpu.num_fp_alu_accesses                      0                       # Number of float alu accesses
system.cpu.num_vec_alu_accesses                     0                       # Number of vector alu accesses
system.cpu.num_func_calls                           0                       # number of times a function call or return occured
system.cpu.num_conditional_control_insts            0                       # number of instructions that are conditional controls
system.cpu.num_int_insts                            0                       # number of integer instructions
system.cpu.num_fp_insts                             0                       # number of float instructions
system.cpu.num_vec_insts                            0                       # number of vector instructions
system.cpu.num_int_register_reads                   0                       # number of times the integer registers were read
system.cpu.num_int_register_writes                  0                       # number of times the integer registers were written
system.cpu.num_fp_register_reads                    0                       # number of times the floating registers were read
system.cpu.num_fp_register_writes                   0                       # number of times the floating registers were written
system.cpu.num_vec_register_reads                   0                       # number of times the vector registers were read
system.cpu.num_vec_register_writes                  0                       # number of times the vector registers were written
system.cpu.num_mem_refs                             0                       # number of memory refs
system.cpu.num_load_insts                           0                       # Number of load instructions
system.cpu.num_store_insts                          0                       # Number of store instructions
system.cpu.num_idle_cycles                          0                       # Number of idle cycles
system.cpu.num_busy_cycles                          0                       # Number of busy cycles
system.cpu.not_idle_fraction                        1                       # Percentage of non-idle cycles
system.cpu.idle_fraction                            0                       # Percentage of idle cycles
system.cpu.op_class::No_OpClass                     0                       # Class of executed instruction
system.cpu.op_class::IntAlu                         0                       # Class of executed instruction
system.cpu.op_class::IntMult                        0                       # Class of executed instruction
system.cpu.op_class::IntDiv                         0                       # Class of executed instruction
system.cpu.op_class::FloatAdd                       0                       # Class of executed instruction
system.cpu.op_class::FloatCmp                       0                       # Class of executed instruction
system.cpu.op_class::FloatCvt                       0                       # Class of executed instruction
system.cpu.op_class::FloatMult                      0                       # Class of executed instruction
system.cpu.op_class::FloatMultAcc                   0                       # Class of executed instruction
system.cpu.op_class::FloatDiv                       0                       # Class of executed instruction
system.cpu.op_class::FloatMisc                      0                       # Class of executed instruction
system.cpu.op_class::FloatSqrt                      0                       # Class of executed instruction
system.cpu.op_class::SimdAdd                        0                       # Class of executed instruction
system.cpu.op_class::SimdAddAcc                     0                       # Class of executed instruction
system.cpu.op_class::SimdAlu                        0                       # Class of executed instruction
system.cpu.op_class::SimdCmp                        0                       # Class of executed instruction
system.cpu.op_class::SimdCvt                        0                       # Class of executed instruction
system.cpu.op_class::SimdMisc                       0                       # Class of executed instruction
system.cpu.op_class::SimdMult                       0                       # Class of executed instruction
system.cpu.op_class::SimdMultAcc                    0                       # Class of executed instruction
system.cpu.op_class::SimdShift                      0                       # Class of executed instruction
system.cpu.op_class::SimdShiftAcc                   0                       # Class of executed instruction
system.cpu.op_class::SimdSqrt                       0                       # Class of executed instruction
system.cpu.op_class::SimdFloatAdd                   0                       # Class of executed instruction
system.cpu.op_class::SimdFloatAlu                   0                       # Class of executed instruction
system.cpu.op_class::SimdFloatCmp                   0                       # Class of executed instruction
system.cpu.op_class::SimdFloatCvt                   0                       # Class of executed instruction
system.cpu.op_class::SimdFloatDiv                   0                       # Class of executed instruction
system.cpu.op_class::SimdFloatMisc                  0                       # Class of executed instruction
system.cpu.op_class::SimdFloatMult                  0                       # Class of executed instruction
system.cpu.op_class::SimdFloatMultAcc               0                       # Class of executed instruction
system.cpu.op_class::SimdFloatSqrt                  0                       # Class of executed instruction
system.cpu.op_class::MemRead                        0                       # Class of executed instruction
system.cpu.op_class::MemWrite                       0                       # Class of executed instruction
system.cpu.op_class::FloatMemRead                   0                       # Class of executed instruction
system.cpu.op_class::FloatMemWrite                  0                       # Class of executed instruction
system.cpu.op_class::IprAccess                      0                       # Class of executed instruction
system.cpu.op_class::InstPrefetch                   0                       # Class of executed instruction
system.cpu.op_class::total                          0                       # Class of executed instruction
system.cpu.dcache.tags.pwrStateResidencyTicks::UNDEFINED 995442013500                       # Cumulative time (in ticks) in various power states
system.cpu.dcache.tags.replacements          22924924                       # number of replacements
system.cpu.dcache.tags.tagsinuse                 1024                       # Cycle average of tags in use
system.cpu.dcache.tags.total_refs            60685161                       # Total number of references to valid blocks.
system.cpu.dcache.tags.sampled_refs          22925948                       # Sample count of references to valid blocks.
system.cpu.dcache.tags.avg_refs              2.647008                       # Average number of references to valid blocks.
system.cpu.dcache.tags.warmup_cycle                 0                       # Cycle when the warmup percentage was hit.
system.cpu.dcache.tags.occ_blocks::cpu.data     0.020596                       # Average occupied blocks per requestor
system.cpu.dcache.tags.occ_blocks::switch_cpus.data  1023.979404                       # Average occupied blocks per requestor
system.cpu.dcache.tags.occ_percent::cpu.data     0.000020                       # Average percentage of cache occupancy
system.cpu.dcache.tags.occ_percent::switch_cpus.data     0.999980                       # Average percentage of cache occupancy
system.cpu.dcache.tags.occ_percent::total            1                       # Average percentage of cache occupancy
system.cpu.dcache.tags.occ_task_id_blocks::1024         1024                       # Occupied blocks per task id
system.cpu.dcache.tags.age_task_id_blocks_1024::0          714                       # Occupied blocks per task id
system.cpu.dcache.tags.age_task_id_blocks_1024::1          310                       # Occupied blocks per task id
system.cpu.dcache.tags.occ_task_id_percent::1024            1                       # Percentage of cache occupancy per task id
system.cpu.dcache.tags.tag_accesses         310769012                       # Number of tag accesses
system.cpu.dcache.tags.data_accesses        310769012                       # Number of data accesses
system.cpu.dcache.pwrStateResidencyTicks::UNDEFINED 995442013500                       # Cumulative time (in ticks) in various power states
system.cpu.dcache.ReadReq_hits::switch_cpus.data     17937448                       # number of ReadReq hits
system.cpu.dcache.ReadReq_hits::total        17937448                       # number of ReadReq hits
system.cpu.dcache.WriteReq_hits::switch_cpus.data     42744610                       # number of WriteReq hits
system.cpu.dcache.WriteReq_hits::total       42744610                       # number of WriteReq hits
system.cpu.dcache.demand_hits::switch_cpus.data     60682058                       # number of demand (read+write) hits
system.cpu.dcache.demand_hits::total         60682058                       # number of demand (read+write) hits
system.cpu.dcache.overall_hits::switch_cpus.data     60682058                       # number of overall hits
system.cpu.dcache.overall_hits::total        60682058                       # number of overall hits
system.cpu.dcache.ReadReq_misses::switch_cpus.data     83218325                       # number of ReadReq misses
system.cpu.dcache.ReadReq_misses::total      83218325                       # number of ReadReq misses
system.cpu.dcache.WriteReq_misses::switch_cpus.data        21661                       # number of WriteReq misses
system.cpu.dcache.WriteReq_misses::total        21661                       # number of WriteReq misses
system.cpu.dcache.demand_misses::switch_cpus.data     83239986                       # number of demand (read+write) misses
system.cpu.dcache.demand_misses::total       83239986                       # number of demand (read+write) misses
system.cpu.dcache.overall_misses::switch_cpus.data     83239986                       # number of overall misses
system.cpu.dcache.overall_misses::total      83239986                       # number of overall misses
system.cpu.dcache.ReadReq_miss_latency::switch_cpus.data 726214716500                       # number of ReadReq miss cycles
system.cpu.dcache.ReadReq_miss_latency::total 726214716500                       # number of ReadReq miss cycles
system.cpu.dcache.WriteReq_miss_latency::switch_cpus.data    275702395                       # number of WriteReq miss cycles
system.cpu.dcache.WriteReq_miss_latency::total    275702395                       # number of WriteReq miss cycles
system.cpu.dcache.demand_miss_latency::switch_cpus.data 726490418895                       # number of demand (read+write) miss cycles
system.cpu.dcache.demand_miss_latency::total 726490418895                       # number of demand (read+write) miss cycles
system.cpu.dcache.overall_miss_latency::switch_cpus.data 726490418895                       # number of overall miss cycles
system.cpu.dcache.overall_miss_latency::total 726490418895                       # number of overall miss cycles
system.cpu.dcache.ReadReq_accesses::switch_cpus.data    101155773                       # number of ReadReq accesses(hits+misses)
system.cpu.dcache.ReadReq_accesses::total    101155773                       # number of ReadReq accesses(hits+misses)
system.cpu.dcache.WriteReq_accesses::switch_cpus.data     42766271                       # number of WriteReq accesses(hits+misses)
system.cpu.dcache.WriteReq_accesses::total     42766271                       # number of WriteReq accesses(hits+misses)
system.cpu.dcache.demand_accesses::switch_cpus.data    143922044                       # number of demand (read+write) accesses
system.cpu.dcache.demand_accesses::total    143922044                       # number of demand (read+write) accesses
system.cpu.dcache.overall_accesses::switch_cpus.data    143922044                       # number of overall (read+write) accesses
system.cpu.dcache.overall_accesses::total    143922044                       # number of overall (read+write) accesses
system.cpu.dcache.ReadReq_miss_rate::switch_cpus.data     0.822675                       # miss rate for ReadReq accesses
system.cpu.dcache.ReadReq_miss_rate::total     0.822675                       # miss rate for ReadReq accesses
system.cpu.dcache.WriteReq_miss_rate::switch_cpus.data     0.000506                       # miss rate for WriteReq accesses
system.cpu.dcache.WriteReq_miss_rate::total     0.000506                       # miss rate for WriteReq accesses
system.cpu.dcache.demand_miss_rate::switch_cpus.data     0.578369                       # miss rate for demand accesses
system.cpu.dcache.demand_miss_rate::total     0.578369                       # miss rate for demand accesses
system.cpu.dcache.overall_miss_rate::switch_cpus.data     0.578369                       # miss rate for overall accesses
system.cpu.dcache.overall_miss_rate::total     0.578369                       # miss rate for overall accesses
system.cpu.dcache.ReadReq_avg_miss_latency::switch_cpus.data  8726.620207                       # average ReadReq miss latency
system.cpu.dcache.ReadReq_avg_miss_latency::total  8726.620207                       # average ReadReq miss latency
system.cpu.dcache.WriteReq_avg_miss_latency::switch_cpus.data 12728.054799                       # average WriteReq miss latency
system.cpu.dcache.WriteReq_avg_miss_latency::total 12728.054799                       # average WriteReq miss latency
system.cpu.dcache.demand_avg_miss_latency::switch_cpus.data  8727.661474                       # average overall miss latency
system.cpu.dcache.demand_avg_miss_latency::total  8727.661474                       # average overall miss latency
system.cpu.dcache.overall_avg_miss_latency::switch_cpus.data  8727.661474                       # average overall miss latency
system.cpu.dcache.overall_avg_miss_latency::total  8727.661474                       # average overall miss latency
system.cpu.dcache.blocked_cycles::no_mshrs         6334                       # number of cycles access was blocked
system.cpu.dcache.blocked_cycles::no_targets            0                       # number of cycles access was blocked
system.cpu.dcache.blocked::no_mshrs               917                       # number of cycles access was blocked
system.cpu.dcache.blocked::no_targets               0                       # number of cycles access was blocked
system.cpu.dcache.avg_blocked_cycles::no_mshrs     6.907306                       # average number of cycles each access was blocked
system.cpu.dcache.avg_blocked_cycles::no_targets          nan                       # average number of cycles each access was blocked
system.cpu.dcache.writebacks::writebacks     22920252                       # number of writebacks
system.cpu.dcache.writebacks::total          22920252                       # number of writebacks
system.cpu.dcache.ReadReq_mshr_hits::switch_cpus.data     60297201                       # number of ReadReq MSHR hits
system.cpu.dcache.ReadReq_mshr_hits::total     60297201                       # number of ReadReq MSHR hits
system.cpu.dcache.WriteReq_mshr_hits::switch_cpus.data        17860                       # number of WriteReq MSHR hits
system.cpu.dcache.WriteReq_mshr_hits::total        17860                       # number of WriteReq MSHR hits
system.cpu.dcache.demand_mshr_hits::switch_cpus.data     60315061                       # number of demand (read+write) MSHR hits
system.cpu.dcache.demand_mshr_hits::total     60315061                       # number of demand (read+write) MSHR hits
system.cpu.dcache.overall_mshr_hits::switch_cpus.data     60315061                       # number of overall MSHR hits
system.cpu.dcache.overall_mshr_hits::total     60315061                       # number of overall MSHR hits
system.cpu.dcache.ReadReq_mshr_misses::switch_cpus.data     22921124                       # number of ReadReq MSHR misses
system.cpu.dcache.ReadReq_mshr_misses::total     22921124                       # number of ReadReq MSHR misses
system.cpu.dcache.WriteReq_mshr_misses::switch_cpus.data         3801                       # number of WriteReq MSHR misses
system.cpu.dcache.WriteReq_mshr_misses::total         3801                       # number of WriteReq MSHR misses
system.cpu.dcache.demand_mshr_misses::switch_cpus.data     22924925                       # number of demand (read+write) MSHR misses
system.cpu.dcache.demand_mshr_misses::total     22924925                       # number of demand (read+write) MSHR misses
system.cpu.dcache.overall_mshr_misses::switch_cpus.data     22924925                       # number of overall MSHR misses
system.cpu.dcache.overall_mshr_misses::total     22924925                       # number of overall MSHR misses
system.cpu.dcache.ReadReq_mshr_miss_latency::switch_cpus.data 275527979500                       # number of ReadReq MSHR miss cycles
system.cpu.dcache.ReadReq_mshr_miss_latency::total 275527979500                       # number of ReadReq MSHR miss cycles
system.cpu.dcache.WriteReq_mshr_miss_latency::switch_cpus.data     46536976                       # number of WriteReq MSHR miss cycles
system.cpu.dcache.WriteReq_mshr_miss_latency::total     46536976                       # number of WriteReq MSHR miss cycles
system.cpu.dcache.demand_mshr_miss_latency::switch_cpus.data 275574516476                       # number of demand (read+write) MSHR miss cycles
system.cpu.dcache.demand_mshr_miss_latency::total 275574516476                       # number of demand (read+write) MSHR miss cycles
system.cpu.dcache.overall_mshr_miss_latency::switch_cpus.data 275574516476                       # number of overall MSHR miss cycles
system.cpu.dcache.overall_mshr_miss_latency::total 275574516476                       # number of overall MSHR miss cycles
system.cpu.dcache.ReadReq_mshr_miss_rate::switch_cpus.data     0.226592                       # mshr miss rate for ReadReq accesses
system.cpu.dcache.ReadReq_mshr_miss_rate::total     0.226592                       # mshr miss rate for ReadReq accesses
system.cpu.dcache.WriteReq_mshr_miss_rate::switch_cpus.data     0.000089                       # mshr miss rate for WriteReq accesses
system.cpu.dcache.WriteReq_mshr_miss_rate::total     0.000089                       # mshr miss rate for WriteReq accesses
system.cpu.dcache.demand_mshr_miss_rate::switch_cpus.data     0.159287                       # mshr miss rate for demand accesses
system.cpu.dcache.demand_mshr_miss_rate::total     0.159287                       # mshr miss rate for demand accesses
system.cpu.dcache.overall_mshr_miss_rate::switch_cpus.data     0.159287                       # mshr miss rate for overall accesses
system.cpu.dcache.overall_mshr_miss_rate::total     0.159287                       # mshr miss rate for overall accesses
system.cpu.dcache.ReadReq_avg_mshr_miss_latency::switch_cpus.data 12020.701057                       # average ReadReq mshr miss latency
system.cpu.dcache.ReadReq_avg_mshr_miss_latency::total 12020.701057                       # average ReadReq mshr miss latency
system.cpu.dcache.WriteReq_avg_mshr_miss_latency::switch_cpus.data 12243.350697                       # average WriteReq mshr miss latency
system.cpu.dcache.WriteReq_avg_mshr_miss_latency::total 12243.350697                       # average WriteReq mshr miss latency
system.cpu.dcache.demand_avg_mshr_miss_latency::switch_cpus.data 12020.737973                       # average overall mshr miss latency
system.cpu.dcache.demand_avg_mshr_miss_latency::total 12020.737973                       # average overall mshr miss latency
system.cpu.dcache.overall_avg_mshr_miss_latency::switch_cpus.data 12020.737973                       # average overall mshr miss latency
system.cpu.dcache.overall_avg_mshr_miss_latency::total 12020.737973                       # average overall mshr miss latency
system.cpu.icache.tags.pwrStateResidencyTicks::UNDEFINED 995442013500                       # Cumulative time (in ticks) in various power states
system.cpu.icache.tags.replacements                 5                       # number of replacements
system.cpu.icache.tags.tagsinuse           416.188204                       # Cycle average of tags in use
system.cpu.icache.tags.total_refs          1511024893                       # Total number of references to valid blocks.
system.cpu.icache.tags.sampled_refs               422                       # Sample count of references to valid blocks.
system.cpu.icache.tags.avg_refs          3580627.708531                       # Average number of references to valid blocks.
system.cpu.icache.tags.warmup_cycle                 0                       # Cycle when the warmup percentage was hit.
system.cpu.icache.tags.occ_blocks::cpu.inst   401.066498                       # Average occupied blocks per requestor
system.cpu.icache.tags.occ_blocks::switch_cpus.inst    15.121707                       # Average occupied blocks per requestor
system.cpu.icache.tags.occ_percent::cpu.inst     0.783333                       # Average percentage of cache occupancy
system.cpu.icache.tags.occ_percent::switch_cpus.inst     0.029535                       # Average percentage of cache occupancy
system.cpu.icache.tags.occ_percent::total     0.812868                       # Average percentage of cache occupancy
system.cpu.icache.tags.occ_task_id_blocks::1024          417                       # Occupied blocks per task id
system.cpu.icache.tags.age_task_id_blocks_1024::4          417                       # Occupied blocks per task id
system.cpu.icache.tags.occ_task_id_percent::1024     0.814453                       # Percentage of cache occupancy per task id
system.cpu.icache.tags.tag_accesses         566436090                       # Number of tag accesses
system.cpu.icache.tags.data_accesses        566436090                       # Number of data accesses
system.cpu.icache.pwrStateResidencyTicks::UNDEFINED 995442013500                       # Cumulative time (in ticks) in various power states
system.cpu.icache.ReadReq_hits::switch_cpus.inst    283218005                       # number of ReadReq hits
system.cpu.icache.ReadReq_hits::total       283218005                       # number of ReadReq hits
system.cpu.icache.demand_hits::switch_cpus.inst    283218005                       # number of demand (read+write) hits
system.cpu.icache.demand_hits::total        283218005                       # number of demand (read+write) hits
system.cpu.icache.overall_hits::switch_cpus.inst    283218005                       # number of overall hits
system.cpu.icache.overall_hits::total       283218005                       # number of overall hits
system.cpu.icache.ReadReq_misses::switch_cpus.inst           32                       # number of ReadReq misses
system.cpu.icache.ReadReq_misses::total            32                       # number of ReadReq misses
system.cpu.icache.demand_misses::switch_cpus.inst           32                       # number of demand (read+write) misses
system.cpu.icache.demand_misses::total             32                       # number of demand (read+write) misses
system.cpu.icache.overall_misses::switch_cpus.inst           32                       # number of overall misses
system.cpu.icache.overall_misses::total            32                       # number of overall misses
system.cpu.icache.ReadReq_miss_latency::switch_cpus.inst     17511000                       # number of ReadReq miss cycles
system.cpu.icache.ReadReq_miss_latency::total     17511000                       # number of ReadReq miss cycles
system.cpu.icache.demand_miss_latency::switch_cpus.inst     17511000                       # number of demand (read+write) miss cycles
system.cpu.icache.demand_miss_latency::total     17511000                       # number of demand (read+write) miss cycles
system.cpu.icache.overall_miss_latency::switch_cpus.inst     17511000                       # number of overall miss cycles
system.cpu.icache.overall_miss_latency::total     17511000                       # number of overall miss cycles
system.cpu.icache.ReadReq_accesses::switch_cpus.inst    283218037                       # number of ReadReq accesses(hits+misses)
system.cpu.icache.ReadReq_accesses::total    283218037                       # number of ReadReq accesses(hits+misses)
system.cpu.icache.demand_accesses::switch_cpus.inst    283218037                       # number of demand (read+write) accesses
system.cpu.icache.demand_accesses::total    283218037                       # number of demand (read+write) accesses
system.cpu.icache.overall_accesses::switch_cpus.inst    283218037                       # number of overall (read+write) accesses
system.cpu.icache.overall_accesses::total    283218037                       # number of overall (read+write) accesses
system.cpu.icache.ReadReq_miss_rate::switch_cpus.inst     0.000000                       # miss rate for ReadReq accesses
system.cpu.icache.ReadReq_miss_rate::total     0.000000                       # miss rate for ReadReq accesses
system.cpu.icache.demand_miss_rate::switch_cpus.inst     0.000000                       # miss rate for demand accesses
system.cpu.icache.demand_miss_rate::total     0.000000                       # miss rate for demand accesses
system.cpu.icache.overall_miss_rate::switch_cpus.inst     0.000000                       # miss rate for overall accesses
system.cpu.icache.overall_miss_rate::total     0.000000                       # miss rate for overall accesses
system.cpu.icache.ReadReq_avg_miss_latency::switch_cpus.inst 547218.750000                       # average ReadReq miss latency
system.cpu.icache.ReadReq_avg_miss_latency::total 547218.750000                       # average ReadReq miss latency
system.cpu.icache.demand_avg_miss_latency::switch_cpus.inst 547218.750000                       # average overall miss latency
system.cpu.icache.demand_avg_miss_latency::total 547218.750000                       # average overall miss latency
system.cpu.icache.overall_avg_miss_latency::switch_cpus.inst 547218.750000                       # average overall miss latency
system.cpu.icache.overall_avg_miss_latency::total 547218.750000                       # average overall miss latency
system.cpu.icache.blocked_cycles::no_mshrs            0                       # number of cycles access was blocked
system.cpu.icache.blocked_cycles::no_targets            0                       # number of cycles access was blocked
system.cpu.icache.blocked::no_mshrs                 0                       # number of cycles access was blocked
system.cpu.icache.blocked::no_targets               0                       # number of cycles access was blocked
system.cpu.icache.avg_blocked_cycles::no_mshrs          nan                       # average number of cycles each access was blocked
system.cpu.icache.avg_blocked_cycles::no_targets          nan                       # average number of cycles each access was blocked
system.cpu.icache.writebacks::writebacks            5                       # number of writebacks
system.cpu.icache.writebacks::total                 5                       # number of writebacks
system.cpu.icache.ReadReq_mshr_hits::switch_cpus.inst           16                       # number of ReadReq MSHR hits
system.cpu.icache.ReadReq_mshr_hits::total           16                       # number of ReadReq MSHR hits
system.cpu.icache.demand_mshr_hits::switch_cpus.inst           16                       # number of demand (read+write) MSHR hits
system.cpu.icache.demand_mshr_hits::total           16                       # number of demand (read+write) MSHR hits
system.cpu.icache.overall_mshr_hits::switch_cpus.inst           16                       # number of overall MSHR hits
system.cpu.icache.overall_mshr_hits::total           16                       # number of overall MSHR hits
system.cpu.icache.ReadReq_mshr_misses::switch_cpus.inst           16                       # number of ReadReq MSHR misses
system.cpu.icache.ReadReq_mshr_misses::total           16                       # number of ReadReq MSHR misses
system.cpu.icache.demand_mshr_misses::switch_cpus.inst           16                       # number of demand (read+write) MSHR misses
system.cpu.icache.demand_mshr_misses::total           16                       # number of demand (read+write) MSHR misses
system.cpu.icache.overall_mshr_misses::switch_cpus.inst           16                       # number of overall MSHR misses
system.cpu.icache.overall_mshr_misses::total           16                       # number of overall MSHR misses
system.cpu.icache.ReadReq_mshr_miss_latency::switch_cpus.inst      9649000                       # number of ReadReq MSHR miss cycles
system.cpu.icache.ReadReq_mshr_miss_latency::total      9649000                       # number of ReadReq MSHR miss cycles
system.cpu.icache.demand_mshr_miss_latency::switch_cpus.inst      9649000                       # number of demand (read+write) MSHR miss cycles
system.cpu.icache.demand_mshr_miss_latency::total      9649000                       # number of demand (read+write) MSHR miss cycles
system.cpu.icache.overall_mshr_miss_latency::switch_cpus.inst      9649000                       # number of overall MSHR miss cycles
system.cpu.icache.overall_mshr_miss_latency::total      9649000                       # number of overall MSHR miss cycles
system.cpu.icache.ReadReq_mshr_miss_rate::switch_cpus.inst     0.000000                       # mshr miss rate for ReadReq accesses
system.cpu.icache.ReadReq_mshr_miss_rate::total     0.000000                       # mshr miss rate for ReadReq accesses
system.cpu.icache.demand_mshr_miss_rate::switch_cpus.inst     0.000000                       # mshr miss rate for demand accesses
system.cpu.icache.demand_mshr_miss_rate::total     0.000000                       # mshr miss rate for demand accesses
system.cpu.icache.overall_mshr_miss_rate::switch_cpus.inst     0.000000                       # mshr miss rate for overall accesses
system.cpu.icache.overall_mshr_miss_rate::total     0.000000                       # mshr miss rate for overall accesses
system.cpu.icache.ReadReq_avg_mshr_miss_latency::switch_cpus.inst 603062.500000                       # average ReadReq mshr miss latency
system.cpu.icache.ReadReq_avg_mshr_miss_latency::total 603062.500000                       # average ReadReq mshr miss latency
system.cpu.icache.demand_avg_mshr_miss_latency::switch_cpus.inst 603062.500000                       # average overall mshr miss latency
system.cpu.icache.demand_avg_mshr_miss_latency::total 603062.500000                       # average overall mshr miss latency
system.cpu.icache.overall_avg_mshr_miss_latency::switch_cpus.inst 603062.500000                       # average overall mshr miss latency
system.cpu.icache.overall_avg_mshr_miss_latency::total 603062.500000                       # average overall mshr miss latency
system.l2.tags.pwrStateResidencyTicks::UNDEFINED 995442013500                       # Cumulative time (in ticks) in various power states
system.l2.tags.replacements                         0                       # number of replacements
system.l2.tags.tagsinuse                 21284.121707                       # Cycle average of tags in use
system.l2.tags.total_refs                    91533897                       # Total number of references to valid blocks.
system.l2.tags.sampled_refs                     21285                       # Sample count of references to valid blocks.
system.l2.tags.avg_refs                   4300.394503                       # Average number of references to valid blocks.
system.l2.tags.warmup_cycle                         0                       # Cycle when the warmup percentage was hit.
system.l2.tags.occ_blocks::cpu.inst               500                       # Average occupied blocks per requestor
system.l2.tags.occ_blocks::cpu.data             20769                       # Average occupied blocks per requestor
system.l2.tags.occ_blocks::switch_cpus.inst    15.121707                       # Average occupied blocks per requestor
system.l2.tags.occ_percent::cpu.inst         0.015259                       # Average percentage of cache occupancy
system.l2.tags.occ_percent::cpu.data         0.633820                       # Average percentage of cache occupancy
system.l2.tags.occ_percent::switch_cpus.inst     0.000461                       # Average percentage of cache occupancy
system.l2.tags.occ_percent::total            0.649540                       # Average percentage of cache occupancy
system.l2.tags.occ_task_id_blocks::1024         21285                       # Occupied blocks per task id
system.l2.tags.age_task_id_blocks_1024::4        21285                       # Occupied blocks per task id
system.l2.tags.occ_task_id_percent::1024     0.649567                       # Percentage of cache occupancy per task id
system.l2.tags.tag_accesses                 366784128                       # Number of tag accesses
system.l2.tags.data_accesses                366784128                       # Number of data accesses
system.l2.pwrStateResidencyTicks::UNDEFINED 995442013500                       # Cumulative time (in ticks) in various power states
system.l2.WritebackDirty_hits::writebacks     22920252                       # number of WritebackDirty hits
system.l2.WritebackDirty_hits::total         22920252                       # number of WritebackDirty hits
system.l2.WritebackClean_hits::writebacks            5                       # number of WritebackClean hits
system.l2.WritebackClean_hits::total                5                       # number of WritebackClean hits
system.l2.ReadExReq_hits::switch_cpus.data         3801                       # number of ReadExReq hits
system.l2.ReadExReq_hits::total                  3801                       # number of ReadExReq hits
system.l2.ReadSharedReq_hits::switch_cpus.data     22921124                       # number of ReadSharedReq hits
system.l2.ReadSharedReq_hits::total          22921124                       # number of ReadSharedReq hits
[...]
system.switch_cpus.iew.lsq.thread0.invAddrLoads            0                       # Number of loads ignored due to an invalid address
system.switch_cpus.iew.lsq.thread0.squashedLoads      2669568                       # Number of loads squashed
system.switch_cpus.iew.lsq.thread0.ignoredResponses           30                       # Number of memory responses ignored because the instruction is squashed
system.switch_cpus.iew.lsq.thread0.memOrderViolation         4125                       # Number of memory ordering violations
system.switch_cpus.iew.lsq.thread0.squashedStores       286034                       # Number of stores squashed
system.switch_cpus.iew.lsq.thread0.invAddrSwpfs            0                       # Number of software prefetches ignored due to an invalid address
system.switch_cpus.iew.lsq.thread0.blockedLoads            0                       # Number of blocked loads due to partial load-store forwarding
system.switch_cpus.iew.lsq.thread0.rescheduledLoads       572506                       # Number of loads that were rescheduled
system.switch_cpus.iew.lsq.thread0.cacheBlocked          708                       # Number of times an access to memory failed due to the cache being blocked
system.switch_cpus.iew.iewIdleCycles                0                       # Number of cycles IEW is idle
system.switch_cpus.iew.iewSquashCycles         885131                       # Number of cycles IEW is squashing
system.switch_cpus.iew.iewBlockCycles         3172847                       # Number of cycles IEW is blocking
system.switch_cpus.iew.iewUnblockCycles         64834                       # Number of cycles IEW is unblocking
system.switch_cpus.iew.iewDispatchedInsts   1063699410                       # Number of instructions dispatched to IQ
system.switch_cpus.iew.iewDispSquashedInsts            0                       # Number of squashed instructions skipped by dispatch
system.switch_cpus.iew.iewDispLoadInsts     101500253                       # Number of dispatched load instructions
system.switch_cpus.iew.iewDispStoreInsts     43052305                       # Number of dispatched store instructions
system.switch_cpus.iew.iewDispNonSpecInsts            0                       # Number of dispatched non-speculative instructions
system.switch_cpus.iew.iewIQFullEvents            465                       # Number of times the IQ has become full, causing a stall
system.switch_cpus.iew.iewLSQFullEvents         64367                       # Number of times the LSQ has become full, causing a stall
system.switch_cpus.iew.memOrderViolationEvents         4125                       # Number of memory order violations
system.switch_cpus.iew.predictedTakenIncorrect       634993                       # Number of branches that were predicted taken incorrectly
system.switch_cpus.iew.predictedNotTakenIncorrect       268357                       # Number of branches that were predicted not taken incorrectly
system.switch_cpus.iew.branchMispredicts       903350                       # Number of branch mispredicts detected at execute
system.switch_cpus.iew.iewExecutedInsts    1046468374                       # Number of executed instructions
system.switch_cpus.iew.iewExecLoadInsts     101456954                       # Number of load instructions executed
system.switch_cpus.iew.iewExecSquashedInsts       575191                       # Number of squashed instructions skipped in execute
system.switch_cpus.iew.exec_swp                     0                       # number of swp insts executed
system.switch_cpus.iew.exec_nop                     2                       # number of nop insts executed
system.switch_cpus.iew.exec_refs            144479212                       # number of memory reference insts executed
system.switch_cpus.iew.exec_branches        169106507                       # Number of branches executed
system.switch_cpus.iew.exec_stores           43022258                       # Number of stores executed
system.switch_cpus.iew.exec_rate             1.438050                       # Inst execution rate
system.switch_cpus.iew.wb_sent             1044948343                       # cumulative count of insts sent to commit
system.switch_cpus.iew.wb_count            1044948017                       # cumulative count of insts written-back
system.switch_cpus.iew.wb_producers         644994449                       # num instructions producing a value
system.switch_cpus.iew.wb_consumers        1382678429                       # num instructions consuming a value
system.switch_cpus.iew.wb_rate               1.435961                       # insts written-back per cycle
system.switch_cpus.iew.wb_fanout             0.466482                       # average fanout of values written-back
system.switch_cpus.commit.commitSquashedInsts     29385154                       # The number of squashed insts skipped by commit
system.switch_cpus.commit.branchMispredicts       881902                       # The number of times a branch was mispredicted
system.switch_cpus.commit.committed_per_cycle::samples    723653641                       # Number of insts commited each cycle
system.switch_cpus.commit.committed_per_cycle::mean     1.427294                       # Number of insts commited each cycle
system.switch_cpus.commit.committed_per_cycle::stdev     2.159892                       # Number of insts commited each cycle
system.switch_cpus.commit.committed_per_cycle::underflows            0      0.00%      0.00% # Number of insts commited each cycle
system.switch_cpus.commit.committed_per_cycle::0    363608910     50.25%     50.25% # Number of insts commited each cycle
system.switch_cpus.commit.committed_per_cycle::1    116640359     16.12%     66.36% # Number of insts commited each cycle
system.switch_cpus.commit.committed_per_cycle::2    135583608     18.74%     85.10% # Number of insts commited each cycle
system.switch_cpus.commit.committed_per_cycle::3     10603356      1.47%     86.57% # Number of insts commited each cycle
system.switch_cpus.commit.committed_per_cycle::4     26933611      3.72%     90.29% # Number of insts commited each cycle
system.switch_cpus.commit.committed_per_cycle::5       549213      0.08%     90.36% # Number of insts commited each cycle
system.switch_cpus.commit.committed_per_cycle::6      7344098      1.01%     91.38% # Number of insts commited each cycle
system.switch_cpus.commit.committed_per_cycle::7     40420462      5.59%     96.96% # Number of insts commited each cycle
system.switch_cpus.commit.committed_per_cycle::8     21970024      3.04%    100.00% # Number of insts commited each cycle
system.switch_cpus.commit.committed_per_cycle::overflows            0      0.00%    100.00% # Number of insts commited each cycle
system.switch_cpus.commit.committed_per_cycle::min_value            0                       # Number of insts commited each cycle
system.switch_cpus.commit.committed_per_cycle::max_value            8                       # Number of insts commited each cycle
system.switch_cpus.commit.committed_per_cycle::total    723653641                       # Number of insts commited each cycle
system.switch_cpus.commit.committedInsts   1000000004                       # Number of instructions committed
system.switch_cpus.commit.committedOps     1032866166                       # Number of ops (including micro ops) committed
system.switch_cpus.commit.swp_count                 0                       # Number of s/w prefetches committed
system.switch_cpus.commit.refs              141596952                       # Number of memory references committed
system.switch_cpus.commit.loads              98830681                       # Number of loads committed
system.switch_cpus.commit.membars                   0                       # Number of memory barriers committed
system.switch_cpus.commit.branches          167132908                       # Number of branches committed
system.switch_cpus.commit.vec_insts                 0                       # Number of committed Vector instructions.
system.switch_cpus.commit.fp_insts                  0                       # Number of committed floating point instructions.
system.switch_cpus.commit.int_insts         812838910                       # Number of committed integer instructions.
system.switch_cpus.commit.function_calls       560862                       # Number of function calls committed.
system.switch_cpus.commit.op_class_0::No_OpClass            0      0.00%      0.00% # Class of committed instruction
system.switch_cpus.commit.op_class_0::IntAlu    891269118     86.29%     86.29% # Class of committed instruction
system.switch_cpus.commit.op_class_0::IntMult           49      0.00%     86.29% # Class of committed instruction
system.switch_cpus.commit.op_class_0::IntDiv           47      0.00%     86.29% # Class of committed instruction
system.switch_cpus.commit.op_class_0::FloatAdd            0      0.00%     86.29% # Class of committed instruction
system.switch_cpus.commit.op_class_0::FloatCmp            0      0.00%     86.29% # Class of committed instruction
system.switch_cpus.commit.op_class_0::FloatCvt            0      0.00%     86.29% # Class of committed instruction
system.switch_cpus.commit.op_class_0::FloatMult            0      0.00%     86.29% # Class of committed instruction
system.switch_cpus.commit.op_class_0::FloatMultAcc            0      0.00%     86.29% # Class of committed instruction
system.switch_cpus.commit.op_class_0::FloatDiv            0      0.00%     86.29% # Class of committed instruction
system.switch_cpus.commit.op_class_0::FloatMisc            0      0.00%     86.29% # Class of committed instruction
system.switch_cpus.commit.op_class_0::FloatSqrt            0      0.00%     86.29% # Class of committed instruction
system.switch_cpus.commit.op_class_0::SimdAdd            0      0.00%     86.29% # Class of committed instruction
system.switch_cpus.commit.op_class_0::SimdAddAcc            0      0.00%     86.29% # Class of committed instruction
system.switch_cpus.commit.op_class_0::SimdAlu            0      0.00%     86.29% # Class of committed instruction
system.switch_cpus.commit.op_class_0::SimdCmp            0      0.00%     86.29% # Class of committed instruction
system.switch_cpus.commit.op_class_0::SimdCvt            0      0.00%     86.29% # Class of committed instruction
system.switch_cpus.commit.op_class_0::SimdMisc            0      0.00%     86.29% # Class of committed instruction
system.switch_cpus.commit.op_class_0::SimdMult            0      0.00%     86.29% # Class of committed instruction
system.switch_cpus.commit.op_class_0::SimdMultAcc            0      0.00%     86.29% # Class of committed instruction
system.switch_cpus.commit.op_class_0::SimdShift            0      0.00%     86.29% # Class of committed instruction
system.switch_cpus.commit.op_class_0::SimdShiftAcc            0      0.00%     86.29% # Class of committed instruction
system.switch_cpus.commit.op_class_0::SimdSqrt            0      0.00%     86.29% # Class of committed instruction
system.switch_cpus.commit.op_class_0::SimdFloatAdd            0      0.00%     86.29% # Class of committed instruction
system.switch_cpus.commit.op_class_0::SimdFloatAlu            0      0.00%     86.29% # Class of committed instruction
system.switch_cpus.commit.op_class_0::SimdFloatCmp            0      0.00%     86.29% # Class of committed instruction
system.switch_cpus.commit.op_class_0::SimdFloatCvt            0      0.00%     86.29% # Class of committed instruction
system.switch_cpus.commit.op_class_0::SimdFloatDiv            0      0.00%     86.29% # Class of committed instruction
system.switch_cpus.commit.op_class_0::SimdFloatMisc            0      0.00%     86.29% # Class of committed instruction
system.switch_cpus.commit.op_class_0::SimdFloatMult            0      0.00%     86.29% # Class of committed instruction
system.switch_cpus.commit.op_class_0::SimdFloatMultAcc            0      0.00%     86.29% # Class of committed instruction
system.switch_cpus.commit.op_class_0::SimdFloatSqrt            0      0.00%     86.29% # Class of committed instruction
system.switch_cpus.commit.op_class_0::MemRead     98830681      9.57%     95.86% # Class of committed instruction
system.switch_cpus.commit.op_class_0::MemWrite     42766271      4.14%    100.00% # Class of committed instruction
system.switch_cpus.commit.op_class_0::FloatMemRead            0      0.00%    100.00% # Class of committed instruction
system.switch_cpus.commit.op_class_0::FloatMemWrite            0      0.00%    100.00% # Class of committed instruction
system.switch_cpus.commit.op_class_0::IprAccess            0      0.00%    100.00% # Class of committed instruction
system.switch_cpus.commit.op_class_0::InstPrefetch            0      0.00%    100.00% # Class of committed instruction
system.switch_cpus.commit.op_class_0::total   1032866166                       # Class of committed instruction
system.switch_cpus.commit.bw_lim_events      21970024                       # number cycles where commit BW limit reached
system.switch_cpus.rob.rob_reads           1763934937                       # The number of ROB reads
system.switch_cpus.rob.rob_writes          2128548850                       # The number of ROB writes
system.switch_cpus.timesIdled                       8                       # Number of times that the entire CPU went into an idle state and unscheduled itself
system.switch_cpus.idleCycles                      53                       # Total number of cycles that the CPU has spent unscheduled due to idling
system.switch_cpus.committedInsts          1000000004                       # Number of Instructions Simulated
system.switch_cpus.committedOps            1032866166                       # Number of Ops (including micro ops) Simulated
system.switch_cpus.cpi                       0.727700                       # CPI: Cycles Per Instruction
system.switch_cpus.cpi_total                 0.727700                       # CPI: Total CPI of All Threads
system.switch_cpus.ipc                       1.374193                       # IPC: Instructions Per Cycle
system.switch_cpus.ipc_total                 1.374193                       # IPC: Total IPC of All Threads
system.switch_cpus.int_regfile_reads       1443755154                       # number of integer regfile reads
system.switch_cpus.int_regfile_writes       664686448                       # number of integer regfile writes
system.switch_cpus.fp_regfile_reads              2581                       # number of floating regfile reads
system.switch_cpus.fp_regfile_writes               23                       # number of floating regfile writes
system.switch_cpus.cc_regfile_reads        3437530572                       # number of cc regfile reads
system.switch_cpus.cc_regfile_writes        977170724                       # number of cc regfile writes
system.switch_cpus.misc_regfile_reads       142974949                       # number of misc regfile reads
system.tol2bus.snoop_filter.tot_requests     45849870                       # Total number of requests made to the snoop filter.
system.tol2bus.snoop_filter.hit_single_requests     22924928                       # Number of requests hitting in the snoop filter with a single holder of the requested data.
system.tol2bus.snoop_filter.hit_multi_requests         1856                       # Number of requests hitting in the snoop filter with multiple (>1) holders of the requested data.
system.tol2bus.snoop_filter.tot_snoops              0                       # Total number of snoops made to the snoop filter.
system.tol2bus.snoop_filter.hit_single_snoops            0                       # Number of snoops hitting in the snoop filter with a single holder of the requested data.
system.tol2bus.snoop_filter.hit_multi_snoops            0                       # Number of snoops hitting in the snoop filter with multiple (>1) holders of the requested data.
system.tol2bus.pwrStateResidencyTicks::UNDEFINED 995442013500                       # Cumulative time (in ticks) in various power states
system.tol2bus.trans_dist::ReadResp          22921139                       # Transaction distribution
system.tol2bus.trans_dist::WritebackDirty     22920252                       # Transaction distribution
system.tol2bus.trans_dist::WritebackClean            5                       # Transaction distribution
system.tol2bus.trans_dist::CleanEvict            4672                       # Transaction distribution
system.tol2bus.trans_dist::ReadExReq             3801                       # Transaction distribution
system.tol2bus.trans_dist::ReadExResp            3801                       # Transaction distribution
system.tol2bus.trans_dist::ReadCleanReq            16                       # Transaction distribution
system.tol2bus.trans_dist::ReadSharedReq     22921124                       # Transaction distribution
system.tol2bus.pkt_count_system.cpu.icache.mem_side::system.l2.cpu_side           37                       # Packet count per connected master and slave (bytes)
system.tol2bus.pkt_count_system.cpu.dcache.mem_side::system.l2.cpu_side     68774773                       # Packet count per connected master and slave (bytes)
system.tol2bus.pkt_count::total              68774810                       # Packet count per connected master and slave (bytes)
system.tol2bus.pkt_size_system.cpu.icache.mem_side::system.l2.cpu_side         1344                       # Cumulative packet size per connected master and slave (bytes)
system.tol2bus.pkt_size_system.cpu.dcache.mem_side::system.l2.cpu_side   2934091264                       # Cumulative packet size per connected master and slave (bytes)
system.tol2bus.pkt_size::total             2934092608                       # Cumulative packet size per connected master and slave (bytes)
system.tol2bus.snoops                               0                       # Total snoops (count)
system.tol2bus.snoopTraffic                         0                       # Total snoop traffic (bytes)
system.tol2bus.snoop_fanout::samples         22924941                       # Request fanout histogram
system.tol2bus.snoop_fanout::mean            0.000081                       # Request fanout histogram
system.tol2bus.snoop_fanout::stdev           0.008995                       # Request fanout histogram
system.tol2bus.snoop_fanout::underflows             0      0.00%      0.00% # Request fanout histogram
system.tol2bus.snoop_fanout::0               22923086     99.99%     99.99% # Request fanout histogram
system.tol2bus.snoop_fanout::1                   1855      0.01%    100.00% # Request fanout histogram
system.tol2bus.snoop_fanout::2                      0      0.00%    100.00% # Request fanout histogram
system.tol2bus.snoop_fanout::overflows              0      0.00%    100.00% # Request fanout histogram
system.tol2bus.snoop_fanout::min_value              0                       # Request fanout histogram
system.tol2bus.snoop_fanout::max_value              1                       # Request fanout histogram
system.tol2bus.snoop_fanout::total           22924941                       # Request fanout histogram
system.tol2bus.reqLayer0.occupancy        45845192000                       # Layer occupancy (ticks)
system.tol2bus.reqLayer0.utilization             12.6                       # Layer utilization (%)
system.tol2bus.respLayer0.occupancy             24499                       # Layer occupancy (ticks)
system.tol2bus.respLayer0.utilization             0.0                       # Layer utilization (%)
system.tol2bus.respLayer1.occupancy       34387386000                       # Layer occupancy (ticks)
system.tol2bus.respLayer1.utilization             9.5                       # Layer utilization (%)

---------- End Simulation Statistics   ----------
