gem5 Simulator System.  http://gem5.org
gem5 is copyrighted software; use the --copyright option for details.

gem5 compiled Dec  3 2017 13:31:44
gem5 started Dec  4 2017 18:34:36
gem5 executing on hellokitty-6, pid 289415
command line: /research/rraju2/ece752/gem5/build/ARM/gem5.opt /research/rraju2/ece752/gem5/configs/example/se.py --cpu-type=O3_ARM_v7a_3 --caches --l2cache --mem-size=2GB --cpu-clock=2GHz --sys-clock=2GHz --maxinsts=1000000000 --fast-forward=1000000000 --cmd=453.povray --options=SPEC-benchmark-train.ini --output=453.povray.stdout --errout=453.povray.stderr

info: Standard input is not a terminal, disabling listeners.
Global frequency set at 1000000000000 ticks per second
Switch at instruction count:1000000000
Switched CPUS @ tick 740355829000
switching cpus
**** REAL SIMULATION ****
Exiting @ tick 1202145772500 because a thread reached the max instruction count
