gem5 Simulator System.  http://gem5.org
gem5 is copyrighted software; use the --copyright option for details.

gem5 compiled Dec  5 2017 11:40:29
gem5 started Dec  7 2017 15:37:25
gem5 executing on hellokitty-4, pid 358025
command line: /research/rraju2/ece752/gem5/build/ARM/gem5.opt /research/rraju2/ece752/gem5/configs/example/se.py --cpu-type=ex5_big --fast-forward=1000000000 --caches --l2cache --mem-size=2GB --cpu-clock=2GHz --sys-clock=2GHz --maxinsts=1000000000 --cmd=450.soplex '--options=-m1200 train.mps' --output=450.soplex.stdout --errout=450.soplex.stderr

info: Standard input is not a terminal, disabling listeners.
Global frequency set at 1000000000000 ticks per second
Switch at instruction count:1000000000
Switched CPUS @ tick 629762868000
switching cpus
**** REAL SIMULATION ****
Exiting @ tick 1869190476000 because a thread reached the max instruction count
